Written by BCL::WriteToMDL,3-hydroxy-4-O-?-D-(6-O-acetylglucopyranosyl)benzyl vanilloate
RMcorina  04221113463D 1   1.00000     0.00000 
CORINA 3.44 0023  09.01.2008
 61 63  0  0  0  0  0  0  0  0999 V2000
   -0.0167    1.3782    0.0096 C   0  0  0  1  0  0  0  0  0  0  0  0
    0.0021   -0.0041    0.0020 C   0  0  0  1  0  0  0  0  0  0  0  0
    1.2113   -0.6805   -0.0131 C   0  0  0  1  0  0  0  0  0  0  0  0
    2.4050    0.0347   -0.0207 C   0  0  0  1  0  0  0  0  0  0  0  0
    2.3791    1.4201   -0.0130 C   0  0  0  1  0  0  0  0  0  0  0  0
    1.1693    2.0887    0.0021 C   0  0  0  1  0  0  0  0  0  0  0  0
   -1.3328    2.1122    0.0198 C   0  0  0  1  0  0  0  0  0  0  0  0
   -2.9149    2.9902    1.5776 C   0  0  0  1  0  0  0  0  0  0  0  0
   -3.4007    3.2573    2.9442 C   0  0  0  1  0  0  0  0  0  0  0  0
   -2.6506    2.8425    4.0476 C   0  0  0  1  0  0  0  0  0  0  0  0
   -3.1062    3.0929    5.3238 C   0  0  0  1  0  0  0  0  0  0  0  0
   -4.3097    3.7570    5.5169 C   0  0  0  1  0  0  0  0  0  0  0  0
   -4.6103    3.9314    3.1386 C   0  0  0  1  0  0  0  0  0  0  0  0
   -5.0638    4.1735    4.4202 C   0  0  0  1  0  0  0  0  0  0  0  0
   -6.9536    5.2378    3.4445 C   0  0  0  1  0  0  0  0  0  0  0  0
    4.7790    0.1745   -0.0421 C   0  0  0  1  0  0  0  0  0  0  0  0
    5.9947   -0.7171   -0.3086 C   0  0  0  1  0  0  0  0  0  0  0  0
    7.2656    0.1362   -0.2549 C   0  0  0  1  0  0  0  0  0  0  0  0
    6.0750    1.6641    1.3192 C   0  0  0  1  0  0  0  0  0  0  0  0
    6.1171    2.3150    2.7032 C   0  0  0  1  0  0  0  0  0  0  0  0
    7.3427    0.8324    1.1074 C   0  0  0  1  0  0  0  0  0  0  0  0
    4.8612    3.8486    4.0263 C   0  0  0  1  0  0  0  0  0  0  0  0
    3.7000    4.7802    4.2603 C   0  0  0  1  0  0  0  0  0  0  0  0
   -1.7490    2.3405    1.3920 O   0  0  0  1  0  0  0  0  0  0  0  0
   -3.5658    3.3559    0.6191 O   0  0  0  1  0  0  0  0  0  0  0  0
   -4.7541    4.0013    6.7765 O   0  0  0  1  0  0  0  0  0  0  0  0
   -6.2398    4.8288    4.6129 O   0  0  0  1  0  0  0  0  0  0  0  0
    1.2315   -2.0402   -0.0202 O   0  0  0  1  0  0  0  0  0  0  0  0
    3.5944   -0.6246   -0.0351 O   0  0  0  1  0  0  0  0  0  0  0  0
    6.0639   -1.7401    0.6867 O   0  0  0  1  0  0  0  0  0  0  0  0
    4.9290    0.8155    1.2262 O   0  0  0  1  0  0  0  0  0  0  0  0
    7.4477   -0.1496    2.1402 O   0  0  0  1  0  0  0  0  0  0  0  0
    8.4108   -0.7003   -0.4297 O   0  0  0  1  0  0  0  0  0  0  0  0
    4.9733    3.1958    2.8588 O   0  0  0  1  0  0  0  0  0  0  0  0
    5.6913    3.6892    4.8897 O   0  0  0  1  0  0  0  0  0  0  0  0
   -0.9258   -0.5568    0.0082 H   0  0  0  1  0  0  0  0  0  0  0  0
    3.3042    1.9775   -0.0184 H   0  0  0  1  0  0  0  0  0  0  0  0
    1.1505    3.1686    0.0077 H   0  0  0  1  0  0  0  0  0  0  0  0
   -1.2190    3.0692   -0.4894 H   0  0  0  1  0  0  0  0  0  0  0  0
   -2.0860    1.5147   -0.4937 H   0  0  0  1  0  0  0  0  0  0  0  0
   -1.7140    2.3253    3.9003 H   0  0  0  1  0  0  0  0  0  0  0  0
   -2.5255    2.7714    6.1759 H   0  0  0  1  0  0  0  0  0  0  0  0
   -5.1907    4.2579    2.2884 H   0  0  0  1  0  0  0  0  0  0  0  0
   -7.2013    4.3620    2.8448 H   0  0  0  1  0  0  0  0  0  0  0  0
   -7.8709    5.7477    3.7390 H   0  0  0  1  0  0  0  0  0  0  0  0
   -6.3332    5.9158    2.8585 H   0  0  0  1  0  0  0  0  0  0  0  0
    4.7036    0.9295   -0.8246 H   0  0  0  1  0  0  0  0  0  0  0  0
    5.9026   -1.1735   -1.2942 H   0  0  0  1  0  0  0  0  0  0  0  0
    7.2355    0.8854   -1.0460 H   0  0  0  1  0  0  0  0  0  0  0  0
    6.0165    2.4390    0.5548 H   0  0  0  1  0  0  0  0  0  0  0  0
    6.0864    1.5407    3.4698 H   0  0  0  1  0  0  0  0  0  0  0  0
    7.0363    2.8916    2.8058 H   0  0  0  1  0  0  0  0  0  0  0  0
    8.2153    1.4851    1.1340 H   0  0  0  1  0  0  0  0  0  0  0  0
    2.8716    4.2249    4.7001 H   0  0  0  1  0  0  0  0  0  0  0  0
    4.0044    5.5768    4.9391 H   0  0  0  1  0  0  0  0  0  0  0  0
    3.3841    5.2126    3.3109 H   0  0  0  1  0  0  0  0  0  0  0  0
   -4.4560    4.8455    7.1420 H   0  0  0  1  0  0  0  0  0  0  0  0
    1.2288   -2.4291   -0.9056 H   0  0  0  1  0  0  0  0  0  0  0  0
    5.2881   -2.3167    0.7129 H   0  0  0  1  0  0  0  0  0  0  0  0
    8.2297   -0.7138    2.0685 H   0  0  0  1  0  0  0  0  0  0  0  0
    8.4242   -1.1783   -1.2702 H   0  0  0  1  0  0  0  0  0  0  0  0
  1  2  2  0  0  0  0
  1  6  1  0  0  0  0
  1  7  1  0  0  0  0
  2  3  1  0  0  0  0
  2 36  1  0  0  0  0
  3  4  2  0  0  0  0
  3 28  1  0  0  0  0
  4  5  1  0  0  0  0
  4 29  1  0  0  0  0
  5  6  2  0  0  0  0
  5 37  1  0  0  0  0
  6 38  1  0  0  0  0
  7 24  1  0  0  0  0
  7 39  1  0  0  0  0
  7 40  1  0  0  0  0
  8  9  1  0  0  0  0
  8 24  1  0  0  0  0
  8 25  2  0  0  0  0
  9 10  2  0  0  0  0
  9 13  1  0  0  0  0
 10 11  1  0  0  0  0
 10 41  1  0  0  0  0
 11 12  2  0  0  0  0
 11 42  1  0  0  0  0
 12 14  1  0  0  0  0
 12 26  1  0  0  0  0
 13 14  2  0  0  0  0
 13 43  1  0  0  0  0
 14 27  1  0  0  0  0
 15 27  1  0  0  0  0
 15 44  1  0  0  0  0
 15 45  1  0  0  0  0
 15 46  1  0  0  0  0
 16 17  1  0  0  0  0
 16 29  1  0  0  0  0
 16 31  1  0  0  0  0
 16 47  1  0  0  0  0
 17 18  1  0  0  0  0
 17 30  1  0  0  0  0
 17 48  1  0  0  0  0
 18 21  1  0  0  0  0
 18 33  1  0  0  0  0
 18 49  1  0  0  0  0
 19 20  1  0  0  0  0
 19 21  1  0  0  0  0
 19 31  1  0  0  0  0
 19 50  1  0  0  0  0
 20 34  1  0  0  0  0
 20 51  1  0  0  0  0
 20 52  1  0  0  0  0
 21 32  1  0  0  0  0
 21 53  1  0  0  0  0
 22 23  1  0  0  0  0
 22 34  1  0  0  0  0
 22 35  2  0  0  0  0
 23 54  1  0  0  0  0
 23 55  1  0  0  0  0
 23 56  1  0  0  0  0
 26 57  1  0  0  0  0
 28 58  1  0  0  0  0
 30 59  1  0  0  0  0
 32 60  1  0  0  0  0
 33 61  1  0  0  0  0
M  END
> <Assignment Method>
0:HSQC,HMBC,NOESY 1:HSQC,HMBC,NOESY 2:HSQC,HMBC,NOESY 

> <Field Strength [MHz]>
0:150 1:600 2:150 

> <MaxCSDeviation>
0 

> <NMRShiftDB ID>
30079970

> <PUBCHEM_BONDANNOTATIONS>
1 2 8
1 6 8
2 3 8
3 4 8
4 5 8
5 6 8
9 10 8
9 13 8
10 11 8
11 12 8
12 14 8
13 14 8

> <Solvent>
0:Methanol-D4 (CD3OD) 1:Methanol-D4 (CD3OD) 2:Methanol-D4 (CD3OD) 

> <Spectrum 13C 0>
19.3;0.0Q;22|55.0;0.0Q;14|63.3;0.0T;19|65.7;0.0T;6|70.2;0.0D;20|73.4;0.0D;16|74.1;0.0D;18|76.0;0.0D;17|102.6;0.0D;15|112.2;0.0D;12|114.6;0.0D;10|115.8;0.0D;1|117.3;0.0D;4|119.4;0.0D;5|121.2;0.0S;8|123.7;0.0D;9|132.2;0.0S;0|145.1;0.0S;3|147.1;0.0S;2|147.4;0.0S;13|151.6;0.0S;11|166.5;0.0S;7|171.3;0.0S;21|

> <Spectrum 13C 2>
19.3;0.0Q;22|55.0;0.0Q;14|63.3;0.0T;19|65.7;0.0T;6|70.2;0.0D;20|73.4;0.0D;16|74.1;0.0D;18|76.0;0.0D;17|102.6;0.0D;15|112.2;0.0D;12|114.6;0.0D;10|115.8;0.0D;1|117.3;0.0D;4|119.4;0.0D;5|121.2;0.0S;8|123.7;0.0D;9|132.2;0.0S;0|145.1;0.0S;3|147.1;0.0S;2|147.4;0.0S;13|151.6;0.0S;11|166.5;0.0S;7|171.3;0.0S;21|

> <Spectrum 1H 1>
2.05;0.0s;22|2.05;0.0s;22|2.05;0.0s;22|3.38;0.0m;20|3.47;0.0dd;17|3.5;0.0dd;16|3.63;0.0ddd;18|3.87;0.0s;14|3.87;0.0s;14|3.87;0.0s;14|4.25;0.0dd;19|4.41;0.0dd;19|4.78;0.0d;15|5.2;0.0s;6|6.83;0.0d;10|6.87;0.0dd;5|6.96;0.0d;1|7.12;0.0d;4|7.54;0.0br s;12|7.57;0.0dd;9|

> <Temperature [K]>
0:Unknown 1:Unknown 2:298.15 

$$$$
