
ABcorina  11250611113D 1   1.00000     0.00000 
CORINA evaluation license 3.40 0066  02.08.2006
 48 50  0  0  0  0  0  0  0  0999 V2000
   -0.0218    1.7577    0.0117 S   0  0  0  0  0  0  0  0  0  0  0  0
   -0.2228    5.1467    8.6788 N   0  0  0  0  0  0  0  0  0  0  0  0
   -0.5767    3.3560    9.8739 N   0  0  0  0  0  0  0  0  0  0  0  0
   -0.1103    3.8505    8.6955 C   0  0  0  0  0  0  0  0  0  0  0  0
   -0.7696    5.5725    9.8464 C   0  0  0  0  0  0  0  0  0  0  0  0
   -1.0042    4.4296   10.6293 C   0  0  0  0  0  0  0  0  0  0  0  0
    0.0021   -0.0041    0.0020 C   0  0  0  0  0  0  0  0  0  0  0  0
    1.3357    2.1775    0.0010 O   0  0  0  0  0  0  0  0  0  0  0  0
   -0.9650    2.1517   -0.9755 O   0  0  0  0  0  0  0  0  0  0  0  0
   -0.6463    2.2315    1.4705 N   0  0  0  0  0  0  0  0  0  0  0  0
   -1.0905   -0.7075   -0.4695 C   0  0  0  0  0  0  0  0  0  0  0  0
    1.1156   -0.6827    0.4607 C   0  0  0  0  0  0  0  0  0  0  0  0
   -1.0718   -2.0897   -0.4770 C   0  0  0  0  0  0  0  0  0  0  0  0
    1.1344   -2.0649    0.4531 C   0  0  0  0  0  0  0  0  0  0  0  0
    0.0397   -2.7685   -0.0135 C   0  0  0  0  0  0  0  0  0  0  0  0
    0.4539    3.0184    7.5730 C   0  0  0  0  0  0  0  0  0  0  0  0
   -1.1055    6.8318   10.3505 C   0  0  0  0  0  0  0  0  0  0  0  0
   -1.5649    4.5608   11.8925 C   0  0  0  0  0  0  0  0  0  0  0  0
    0.0809    1.9392    2.7082 C   0  0  0  0  0  0  0  0  0  0  0  0
    0.0602   -4.2753   -0.0218 C   0  0  0  0  0  0  0  0  0  0  0  0
   -0.3055    3.3236    6.2803 C   0  0  0  0  0  0  0  0  0  0  0  0
   -0.4920    2.7841    3.8479 C   0  0  0  0  0  0  0  0  0  0  0  0
    0.2674    2.4788    5.1406 C   0  0  0  0  0  0  0  0  0  0  0  0
   -1.8876    5.8133   12.3696 C   0  0  0  0  0  0  0  0  0  0  0  0
   -1.6571    6.9417   11.5953 C   0  0  0  0  0  0  0  0  0  0  0  0
   -0.6042    2.4222   10.1348 H   0  0  0  0  0  0  0  0  0  0  0  0
   -1.4935    2.7025    1.5054 H   0  0  0  0  0  0  0  0  0  0  0  0
   -1.9589   -0.1773   -0.8316 H   0  0  0  0  0  0  0  0  0  0  0  0
    1.9711   -0.1331    0.8246 H   0  0  0  0  0  0  0  0  0  0  0  0
   -1.9256   -2.6394   -0.8448 H   0  0  0  0  0  0  0  0  0  0  0  0
    2.0045   -2.5951    0.8111 H   0  0  0  0  0  0  0  0  0  0  0  0
    1.5092    3.2563    7.4393 H   0  0  0  0  0  0  0  0  0  0  0  0
    0.3478    1.9610    7.8157 H   0  0  0  0  0  0  0  0  0  0  0  0
   -0.9290    7.7167    9.7570 H   0  0  0  0  0  0  0  0  0  0  0  0
   -1.7478    3.6857   12.4985 H   0  0  0  0  0  0  0  0  0  0  0  0
   -0.0253    0.8819    2.9509 H   0  0  0  0  0  0  0  0  0  0  0  0
    1.1361    2.1771    2.5745 H   0  0  0  0  0  0  0  0  0  0  0  0
   -0.3321   -4.6492    0.9239 H   0  0  0  0  0  0  0  0  0  0  0  0
   -0.5571   -4.6425   -0.8417 H   0  0  0  0  0  0  0  0  0  0  0  0
    1.0844   -4.6240   -0.1537 H   0  0  0  0  0  0  0  0  0  0  0  0
   -1.3608    3.0857    6.4140 H   0  0  0  0  0  0  0  0  0  0  0  0
   -0.1994    4.3810    6.0376 H   0  0  0  0  0  0  0  0  0  0  0  0
   -0.3859    3.8414    3.6052 H   0  0  0  0  0  0  0  0  0  0  0  0
   -1.5473    2.5461    3.9816 H   0  0  0  0  0  0  0  0  0  0  0  0
    1.3227    2.7167    5.0069 H   0  0  0  0  0  0  0  0  0  0  0  0
    0.1613    1.4215    5.3833 H   0  0  0  0  0  0  0  0  0  0  0  0
   -2.3238    5.9169   13.3521 H   0  0  0  0  0  0  0  0  0  0  0  0
   -1.9153    7.9167   11.9814 H   0  0  0  0  0  0  0  0  0  0  0  0
  1  7  1  0  0  0  0
  1  8  2  0  0  0  0
  1  9  2  0  0  0  0
  1 10  1  0  0  0  0
  2  4  2  0  0  0  0
  2  5  1  0  0  0  0
  3  4  1  0  0  0  0
  3  6  1  0  0  0  0
  3 26  1  0  0  0  0
  4 16  1  0  0  0  0
  5 17  1  0  0  0  0
  5  6  2  0  0  0  0
  6 18  1  0  0  0  0
  7 11  1  0  0  0  0
  7 12  2  0  0  0  0
 10 19  1  0  0  0  0
 10 27  1  0  0  0  0
 11 13  2  0  0  0  0
 11 28  1  0  0  0  0
 12 14  1  0  0  0  0
 12 29  1  0  0  0  0
 13 15  1  0  0  0  0
 13 30  1  0  0  0  0
 14 15  2  0  0  0  0
 14 31  1  0  0  0  0
 15 20  1  0  0  0  0
 16 21  1  0  0  0  0
 16 32  1  0  0  0  0
 16 33  1  0  0  0  0
 17 25  2  0  0  0  0
 17 34  1  0  0  0  0
 18 24  2  0  0  0  0
 18 35  1  0  0  0  0
 19 22  1  0  0  0  0
 19 36  1  0  0  0  0
 19 37  1  0  0  0  0
 20 38  1  0  0  0  0
 20 39  1  0  0  0  0
 20 40  1  0  0  0  0
 21 23  1  0  0  0  0
 21 41  1  0  0  0  0
 21 42  1  0  0  0  0
 22 23  1  0  0  0  0
 22 43  1  0  0  0  0
 22 44  1  0  0  0  0
 23 45  1  0  0  0  0
 23 46  1  0  0  0  0
 24 25  1  0  0  0  0
 24 47  1  0  0  0  0
 25 48  1  0  0  0  0
M  END
> <2DACorr_Ident>
25,27,37,34,27,22,21,18,17,18,18

> <2DACorr_LpEN>
236.781,141.603,39.0373,0,0,0,0,14.2561,60.3475,30.6135,0

> <2DACorr_PiChg>
0.420401,-0.203437,0.00167527,-0.00483215,0.00290479,-0.00651134,0.000313858,
0.0395348,-0.0262037,-0.0335661,-0.00200493

> <2DACorr_PiEN>
780.322,814.385,929.101,721.943,408.807,104.899,20.756,120.962,306.637,465.724,
593.664

> <2DACorr_Polariz>
2006.29,2281.23,3064.81,2699.55,2065.89,1666.86,1542.31,1396.39,1372.07,1472,
1526.14

> <2DACorr_SigChg>
0.422059,-0.232595,0.131555,0.0823263,0.100547,0.0428651,0.0126824,0.182759,
-0.202413,0.226024,-0.00318671

> <2DACorr_SigEN>
2212.81,2335.6,3299.58,2900.3,2299.15,1771.35,1653.7,1402.71,1448.97,1704.13,
1717.36

> <2DACorr_TotChg>
1.19994,-0.841651,0.327026,0.0417715,0.124062,0.0392103,0.0393283,0.284367,
-0.5437,0.508947,-0.116433

> <3DACorr_Ident>
27,45,25,27,17,24,13,19,13,21,19,19

> <3DACorr_LpEN>
141.603,39.0373,0,0,0,0,4.17793,10.0782,22.1714,68.7896,0,0

> <3DACorr_PiChg>
-0.203437,0.00196656,-0.00420169,0.00198303,-0.00651134,-7.82473e-16,
-0.00042599,0.0201422,-0.0664012,0.0337601,0.00866529,-0.00531127

> <3DACorr_PiEN>
814.385,1196.54,300.182,563.13,104.899,0,43.7776,145.922,304.956,664.181,
584.499,636.842

> <3DACorr_Polariz>
2281.23,3699.58,1961.87,2076.36,1304.62,1691.72,1024.96,1440.77,1065.41,1779.8,
1597.41,1581.28

> <3DACorr_SigChg>
-0.232595,0.141438,0.0998202,0.0847459,0.0307067,0.0417821,0.0387144,0.10796,
-0.0655923,0.0960187,0.0870357,-0.0109423

> <3DACorr_SigEN>
2335.6,3990.73,2070.09,2343.64,1340.18,1854.95,1043.39,1457.57,1170.54,2032.14,
1779.01,1663.43

> <3DACorr_TotChg>
-0.841651,0.358747,0.0894984,0.0786843,0.0381747,0.0358667,0.0838273,0.0998791,
-0.223685,0.244545,0.0249622,-0.0195913

> <Dipole>
7.811

> <Formula>
C19H23N3O2S

> <HAcc>
5

> <HDon>
2

> <ID_Number>
0174-0471

> <LogS>
-5.16021

> <MolWeight>
357.47

> <Mol_ID>
39

> <Muscarinic Category>
Not Active

> <Muscarinic EC50>
1.48E-05

> <Polariz>
41.289

> <RDF_Ident>
0,0,0,0,0,0,0,0,0,0,0.00185115,0.275228,5.59219,16.5815,11.7439,8.13245,3.65027,
1.47827,0.387182,0.0554406,0.79194,3.26996,7.26733,14.683,17.9425,11.7629,
6.4751,10.1666,4.45205,2.91892,2.73712,0.790706,0.405498,1.11063,2.64916,
7.60034,8.50638,9.43937,7.68604,3.72279,3.28766,4.61253,6.1592,3.31742,2.93172,
4.46032,2.99885,4.91916,5.6981,7.25053,4.77099,5.60022,4.89521,2.9311,2.79157,
1.80952,1.52671,3.40525,2.54503,2.91303,4.80939,3.59372,3.46044,1.61866,3.64916,
7.82771,5.43312,5.53284,2.59446,2.11026,1.14138,1.84578,3.85796,5.12232,2.56334,
1.56334,3.38681,2.12269,0.882407,2.87652,5.75444,3.26235,2.21378,2.77313,
2.14076,1.82758,2.50877,3.80927,3.24428,3.82746,2.85833,2.45983,1.52708,2.80939,
3.5084,3.5084,2.80927,1.50877,2.0922,1.89484,4.17715,4.8764,3.91303,3.21403,
2.89484,3.79108,2.50889,1.86434,2.89496,5.15883,4.24428,3.21378,2.52745,2.84615,
3.26284,5.19546,4.61216,4.19546,2.52696,1.79145,1.45995,1.8764,4.42307,3.22584,
2.82746,2.14163,1.90085,3.97991

> <RDF_LpEN>
0,0,0,0,0,0,0,0,0,0,0,0.0119229,1.76951,35.5472,97.4362,52.0927,46.7599,16.563,
0.824517,0.0781133,1.45743,3.96603,2.09986,12.9762,35.0761,12.9036,0.642432,
0.00432867,0,0,0,0,0,0,0,0,0,0,0,0,0,0,0,0,0,0,0,0,0,0,0,0,0,0,0,0,0,0,0,0,0,0,
0,0,0,0,0,0,0,0,0,0,0,0,0.000515598,0.0765215,1.53698,4.17793,1.53698,0.0765215,
0.000515598,0.00124375,0.184588,3.70756,10.0782,3.70756,0.184588,0.00124375,0,0,
0.00273617,0.406084,8.15641,22.1714,8.15641,0.406084,0.00273617,0.0052649,
0.783269,15.9748,48.2929,31.0012,6.41242,0.285618,0.001889,0,0.00133541,
0.198192,3.98079,10.8209,3.98079,0.198192,0.00133541,0,0,0,0,0,0,0,0,0,0,0,0,0,
0,0

> <RDF_PiChg>
0,0,0,0,0,0,0,0,0,0,8.9439e-07,0.000107058,-0.00114524,-0.0693062,-0.205399,
-0.0759004,-0.00373621,-0.00364266,-0.0015271,-0.00102082,-0.0190352,-0.053274,
-0.0224653,0.0179121,0.0542391,0.0220679,0.00281289,0.00254273,0.000642159,
-0.000713662,-0.000279106,-1.39113e-05,-5.4828e-07,-6.74607e-05,-0.001355,
-0.00368582,-0.00141297,-0.000345989,-0.000448282,-0.000506981,-0.00143637,
-0.00156927,-6.19053e-05,0.000209181,0.00124961,0.00337375,0.00123852,
6.30773e-05,0.00017011,0.000350493,-0.00224007,-0.00653505,-0.002363,
-0.000101378,1.2703e-07,6.31283e-09,-4.63818e-17,-1.26704e-16,-9.35831e-17,
-4.29781e-16,-1.06079e-15,-7.6111e-16,-1.05896e-15,-2.84376e-16,4.13341e-16,
6.15246e-16,4.29838e-16,5.76818e-16,1.85245e-16,-4.33758e-17,-2.31558e-17,
3.87332e-08,5.74851e-06,0.000115462,0.000313767,0.000101911,-0.000266427,
-0.00073981,-0.000272175,-1.35508e-05,-9.13046e-08,1.06064e-07,1.57413e-05,
0.000316172,0.000859444,0.000316172,1.81209e-05,0.000353269,0.00709194,
0.0192471,0.00699118,-0.000514998,-0.0167195,-0.0454338,-0.0169244,-0.00161351,
-0.000672084,-0.00740769,-0.018123,0.0328317,0.106463,0.0323992,-0.000779163,
-0.000762099,-0.00644858,-0.0106992,0.00165169,0.000752849,-0.0222742,
-0.0599176,-0.0208085,0.00237299,0.00354677,0.00632118,-0.000901593,-0.0061644,
0.00370116,0.000961252,0.00205357,0.00103302,9.55737e-05,0.00152061,0.000668692,
-0.0074152,0.00190012,0.00182646,-0.00305445,-0.00709036

> <RDF_PiEN>
0,0,0,0,0,0,0,0,0,0,0.0562386,8.37586,171.995,543.084,405.979,113.665,77.4242,
92.7673,28.8586,2.43841,22.3117,94.372,216.651,385.79,348.638,221.151,185.313,
359.873,162.027,91.1351,31.1735,1.54985,0.030222,2.93549,58.9729,162.065,
95.6408,116.119,81.0676,75.1502,177.04,143.195,107.507,34.7552,56.1424,149.062,
68.0094,40.7177,44.444,86.5258,63.0773,94.6507,50.392,8.44204,0.352303,
0.00230208,0,0,0,0,0,0,0,0,0,0,0,0,0,0,0,0.0025615,0.38016,7.63572,20.7589,
8.05738,8.84932,23.0241,8.46916,0.421655,0.00284109,0.00124375,0.184588,3.70756,
10.0782,3.70756,0.201353,2.49147,50.295,142.287,67.507,11.6974,56.7532,171.05,
121.999,57.647,14.8102,18.3141,49.8198,56.3323,144.259,179.276,122.6,53.3811,
52.79,95.9654,75.2848,51.5424,110.842,207.958,142.374,90.5585,66.765,91.6689,
113.977,189.561,152.248,136.772,78.7656,28.1189,33.3651,61.1965,161.645,149.036,
100.903,39.9409,62.9067,157.839

> <RDF_Polariz>
0,0,0,0,0,0,0,0,0,0,0.157378,23.4005,475.638,1412.5,978.492,616.897,314.953,
171.655,47.8164,5.71809,73.5602,306.79,653.425,1202.38,1377.79,884.793,543.529,
922.861,387.465,203.258,188.95,55.4579,39.6393,110.187,234.524,655.675,693.486,
680.962,550.877,299.408,284.327,349.233,444.773,230.323,224.835,365.745,250.36,
403.317,425.423,532.195,354.401,409.539,357.722,217.321,209.146,138.502,126.507,
285.347,204.653,223.775,348.209,262.287,264.127,127.55,256.01,505.531,370.63,
377.315,183.369,167.086,96.5742,159.161,291.562,374.897,206.449,127.658,267.78,
176.911,72.571,214.3,428.232,262.257,170.578,226.209,175.495,119.322,170.715,
266.452,240.051,325.038,250.538,187.742,118.17,241.37,325.713,317.373,227.751,
105.081,131.144,157.139,379.059,392.767,317.811,267.727,257.046,308.769,198.056,
157.442,249.071,440.48,348.241,259.91,213.331,267.914,316.19,488.054,378.296,
324.751,189.498,129.364,127.097,163.456,379.824,283.359,230.903,154.594,149.129,
326.225

> <RDF_SigChg>
0,0,0,0,0,0,0,0,0,0,-1.22842e-05,-0.00183522,-0.0384108,-0.135454,-0.133578,
-0.0541624,-0.0528636,-0.00246315,0.00612895,0.00191457,0.0307902,0.0716541,
-0.00609066,0.0298967,0.127306,0.0402381,-0.0159097,-0.0417707,-0.00918377,
0.018247,0.0125058,0.00267913,0.000669815,0.00208013,0.0126937,0.0388208,
0.047414,0.0611887,0.0149736,-0.0187714,-0.0194044,0.0273978,0.028671,0.0167708,
0.00385738,-0.0232847,-0.00121302,0.0317209,0.0429133,0.0380095,0.0141401,
0.01604,0.0262206,0.0161931,0.00466999,0.00184553,-0.00165561,-0.00560673,
-0.00181713,-0.00197397,0.00203298,0.006818,0.0113978,0.000464611,0.00115412,
0.0282779,0.0119561,0.00789492,0.00279158,-0.00067214,-0.00150118,-0.00201961,
0.00473884,-0.000869366,-0.0237289,-0.00810233,0.0209488,0.0546812,0.0207741,
0.00594884,0.00919035,0.00456442,0.00560356,0.0333222,0.0821875,0.0324719,
0.00508859,0.0028465,0.00430626,-0.00116859,-0.0185592,-0.00646854,-0.00472312,
-0.0197158,-0.0222479,0.000206647,0.00140082,-0.00764737,-0.021932,-0.0396859,
-0.0499711,0.0820327,0.0359399,0.00199033,-0.0141354,0.00537713,-0.00684961,
0.00751871,0.0393535,0.086856,0.0585242,0.0186636,0.0108313,-0.00670332,
-0.00419148,0.0151876,0.0409446,0.0458431,0.00103317,-0.00973783,-0.00563663,
-0.00336022,-0.00808028,-0.00904169,0.00576235,0.0145698,0.00102669,-0.0113884

> <RDF_SigEN>
0,0,0,0,0,0,0,0,0,0,0.146927,21.871,447.692,1391.62,1107.62,641.615,311.346,
169.867,46.2052,5.73843,75.5251,306.56,616.512,1196.39,1604.02,1080.08,569.817,
868.216,406.037,329.508,284.881,77.8799,32.3,86.8738,214.929,609.305,657.856,
760.511,657.073,344.064,318.924,409.091,558.061,314.274,251.829,375.731,238.665,
377.931,480.086,621.731,413.242,528.443,434.012,230.167,190,118.303,103.708,
233.886,172.155,209.509,354.133,271.587,294.431,143.747,314.209,647.893,415.614,
385.321,178.409,143.656,79.0134,127.274,269.481,391.577,213.931,144.726,318.11,
202.071,70.5481,188.106,382.154,224.388,150.164,198.961,162.236,119.46,176.778,
298.472,278.557,396.252,262.975,176.953,156.416,348.184,336.424,279.412,201.662,
126.23,207.371,188.511,437.099,541.097,361.126,249.498,238.803,336.968,262.947,
174.977,275.078,512.539,396.94,313.628,245.657,299.63,301.322,465.584,425.04,
380.695,260.384,159.67,118.013,165.569,403.947,314.278,275.507,175.163,149.93,
348.859

> <RDF_TotChg>
0,0,0,0,0,0,0,0,0,0,-1.55524e-05,-0.00238262,-0.0574092,-0.347868,-0.650677,
-0.279083,-0.157372,-0.0127413,0.0147429,0.00184976,0.0194983,0.0470153,
0.00637407,0.129165,0.370289,0.114067,-0.0253914,-0.06271,-0.0101675,0.0377239,
0.0240014,0.00479034,0.000694906,0.00182202,0.0108318,0.0307693,0.0410502,
0.0735476,0.0141118,-0.0540818,-0.0746028,0.0252141,0.0618205,0.0390788,
0.00737974,-0.0474638,-0.0112708,0.0308195,0.0482918,0.0597642,0.0180448,
0.00692702,0.0323212,0.0269132,0.0087808,0.00239453,-0.00100278,-0.00346608,
-0.000298768,-0.0105371,-0.0237042,0.00203507,0.0236824,-0.00165034,-0.0082686,
0.0499709,0.0217724,0.0049355,0.00193616,0.000759706,-0.000774193,-0.000882416,
0.0109449,0.00640363,-0.038624,-0.013745,0.0399251,0.103086,0.0383566,
0.00693244,0.00966594,0.0049939,0.00556784,0.0130914,0.0248299,0.0112716,
0.0034698,0.0023017,0.0223865,0.0501012,0.00606189,-0.00488217,-0.0436902,
-0.126098,-0.0596235,0.00307664,0.00159734,-0.030906,-0.0847497,-0.0572312,
0.003212,0.205303,0.0694386,-0.00190504,0.0088793,0.0300504,-0.00548882,
0.0131692,0.0455907,0.0790135,0.0462936,-0.000851598,0.00345658,-0.017153,
-0.0172119,-0.0105985,0.0355195,0.0454637,-0.00920574,-0.0162403,-0.00545118,
0.00360461,-0.000752235,-0.0295524,0.00831363,0.0110498,-0.0152618,-0.0390108

> <SurfACorr_ESP>
7.147,8.60449,5.06426,-2.38485,-6.88281,-5.57662,-3.93343,-1.82323,0.494758,
1.46477,0.538666,-0.453228

> <SurfACorr_HBP>
0.00833376,0.00212248,-0.00277805,-0.0025214,-0.00771801,-0.00148889,
-0.000495425,0.004913,0.00619648,-0.00127522,-0.00663145,-0.00477131

> <SurfACorr_HPP>
0.000252426,0.000441755,0.000688883,0.000693602,0.000586158,0.000436672,
0.000344183,0.000319033,0.000315476,0.000310192,0.000300773,0.000303785

> <TPSA>
74.85

> <XlogP>
3.53534

> <mGluR5 Category>
Potentiator

> <mGluR5 Potentiator EC50>
9.08e-006

$$$$
