
ABcorina  11250611113D 1   1.00000     0.00000 
CORINA evaluation license 3.40 0066  02.08.2006
 33 35  0  0  0  0  0  0  0  0999 V2000
   -0.0319    1.4736   -0.1165 N   0  3  0  0  0  0  0  0  0  0  0  0
   -4.5565   -1.0514    0.1752 N   0  0  0  0  0  0  0  0  0  0  0  0
   -3.4634   -0.7833    0.9967 N   0  0  0  0  0  0  0  0  0  0  0  0
   -1.1802   -0.7121    0.1139 C   0  0  0  0  0  0  0  0  0  0  0  0
   -0.0046   -0.0052   -0.0592 C   0  0  0  0  0  0  0  0  0  0  0  0
   -2.4893    0.0230    0.2441 C   0  0  0  0  0  0  0  0  0  0  0  0
   -4.4622   -0.5493   -1.0070 C   0  0  0  0  0  0  0  0  0  0  0  0
   -3.1535    0.1969   -1.1361 C   0  0  0  0  0  0  0  0  0  0  0  0
   -0.9533    2.0447   -0.6718 O   0  5  0  0  0  0  0  0  0  0  0  0
    0.8645    2.1196    0.3960 O   0  0  0  0  0  0  0  0  0  0  0  0
   -5.4750   -0.6814   -2.0710 C   0  0  0  0  0  0  0  0  0  0  0  0
   -1.1554   -2.0932    0.1617 C   0  0  0  0  0  0  0  0  0  0  0  0
    1.1959   -0.6794   -0.1790 C   0  0  0  0  0  0  0  0  0  0  0  0
   -6.6509   -1.3977   -1.8354 C   0  0  0  0  0  0  0  0  0  0  0  0
   -5.2655   -0.0861   -3.3171 C   0  0  0  0  0  0  0  0  0  0  0  0
    0.0449   -2.7678    0.0370 C   0  0  0  0  0  0  0  0  0  0  0  0
    1.2214   -2.0607   -0.1255 C   0  0  0  0  0  0  0  0  0  0  0  0
   -6.2170   -0.2138   -4.3075 C   0  0  0  0  0  0  0  0  0  0  0  0
   -7.5937   -1.5172   -2.8351 C   0  0  0  0  0  0  0  0  0  0  0  0
   -7.3769   -0.9296   -4.0689 C   0  0  0  0  0  0  0  0  0  0  0  0
   -3.3615   -1.0794    1.9147 H   0  0  0  0  0  0  0  0  0  0  0  0
   -2.3388    0.9898    0.7246 H   0  0  0  0  0  0  0  0  0  0  0  0
   -3.3337    1.2517   -1.3436 H   0  0  0  0  0  0  0  0  0  0  0  0
   -2.5355   -0.2472   -1.9165 H   0  0  0  0  0  0  0  0  0  0  0  0
   -2.0736   -2.6453    0.2972 H   0  0  0  0  0  0  0  0  0  0  0  0
    2.1141   -0.1272   -0.3149 H   0  0  0  0  0  0  0  0  0  0  0  0
   -6.8212   -1.8571   -0.8729 H   0  0  0  0  0  0  0  0  0  0  0  0
   -4.3608    0.4732   -3.5045 H   0  0  0  0  0  0  0  0  0  0  0  0
    0.0648   -3.8468    0.0788 H   0  0  0  0  0  0  0  0  0  0  0  0
    2.1589   -2.5877   -0.2239 H   0  0  0  0  0  0  0  0  0  0  0  0
   -6.0565    0.2463   -5.2713 H   0  0  0  0  0  0  0  0  0  0  0  0
   -8.5033   -2.0706   -2.6544 H   0  0  0  0  0  0  0  0  0  0  0  0
   -8.1187   -1.0260   -4.8479 H   0  0  0  0  0  0  0  0  0  0  0  0
  1  5  1  0  0  0  0
  1  9  1  0  0  0  0
  1 10  2  0  0  0  0
  2  3  1  0  0  0  0
  2  7  2  0  0  0  0
  3  6  1  0  0  0  0
  3 21  1  0  0  0  0
  4  5  1  0  0  0  0
  4  6  1  0  0  0  0
  4 12  2  0  0  0  0
  5 13  2  0  0  0  0
  6  8  1  0  0  0  0
  6 22  1  0  0  0  0
  7  8  1  0  0  0  0
  7 11  1  0  0  0  0
  8 23  1  0  0  0  0
  8 24  1  0  0  0  0
 11 14  1  0  0  0  0
 11 15  2  0  0  0  0
 12 16  1  0  0  0  0
 12 25  1  0  0  0  0
 13 17  1  0  0  0  0
 13 26  1  0  0  0  0
 14 19  2  0  0  0  0
 14 27  1  0  0  0  0
 15 18  1  0  0  0  0
 15 28  1  0  0  0  0
 16 17  2  0  0  0  0
 16 29  1  0  0  0  0
 17 30  1  0  0  0  0
 18 20  2  0  0  0  0
 18 31  1  0  0  0  0
 19 20  1  0  0  0  0
 19 32  1  0  0  0  0
 20 33  1  0  0  0  0
M  END
> <2DACorr_Ident>
20,22,30,29,28,24,17,14,14,9,3

> <2DACorr_LpEN>
49.6539,9.67247,13.1096,0,0,31.004,16.3595,0,0,0,0

> <2DACorr_PiChg>
0.44975,-0.300345,0.0780263,0.00216802,0.0500464,-0.106348,0.0474528,0.00681771,
-0.00179504,0.000745012,-0.0016424

> <2DACorr_PiEN>
781.476,742.658,797.014,786.364,678.799,712.594,591.182,545.982,548.439,338.646,
96.1418

> <2DACorr_Polariz>
1394.16,1634.78,2241.82,2095.71,1857.7,1538.19,1128.39,909.201,756.399,412.412,
116.789

> <2DACorr_SigChg>
0.19078,0.0130632,-0.0410402,-0.000677854,0.0214335,0.11649,0.0451909,
-0.0086994,0.0285693,0.0387229,0.0203463

> <2DACorr_SigEN>
1943.64,1996.03,2689.81,2564.38,2609.83,2298.19,1641.64,1212.02,1288.51,884.786,
318.181

> <2DACorr_TotChg>
0.923419,-0.443101,0.0292553,0.015554,-0.0550207,0.0527159,0.1831,-0.0542994,
0.0173795,0.0713015,0.0501943

> <3DACorr_Ident>
22,43,22,31,21,16,16,13,6,0,0,0

> <3DACorr_LpEN>
9.67247,13.1096,15.502,8.17974,15.502,8.17974,0,0,0,0,0,0

> <3DACorr_PiChg>
-0.300345,0.0773847,-0.0228377,0.0785885,-0.0824565,0.0225038,0.00211569,
0.00119248,-0.00102065,0,0,0

> <3DACorr_PiEN>
742.658,1119.16,571.424,917.749,658.423,541.667,610.358,500.775,175.608,0,0,0

> <3DACorr_Polariz>
1634.78,3050.4,1632.96,1896.33,1453.17,1023.83,959.153,743.387,297.389,0,0,0

> <3DACorr_SigChg>
0.0130632,-0.0149543,0.00214509,0.0883881,0.0485309,0.0371561,0.022219,
0.00887432,0.0279767,0,0,0

> <3DACorr_SigEN>
1996.03,3922.26,2004.52,3108.91,1847.95,1537.36,1443.31,1116.41,526.623,0,0,0

> <3DACorr_TotChg>
-0.443101,0.0787781,0.00801703,0.156072,-0.0736894,0.0960396,0.012227,
-0.0250538,0.0577894,0,0,0

> <Dipole>
3.6915

> <Formula>
C15H13N3O2

> <HAcc>
5

> <HDon>
1

> <ID_Number>
0443-0008

> <LogS>
-4.98359

> <MolWeight>
267.283

> <Mol_ID>
57

> <Muscarinic Category>
Baseline Increase

> <Muscarinic EC50>
1.37E-05

> <Polariz>
29.087

> <RDF_Ident>
0,0,0,0,0,0,0,0,0,0.000370229,0.0565512,1.34211,7.83775,15.2622,8.94102,4.34211,
1.16019,0.0553171,0.000493639,0.0185625,0.405992,1.9569,6.9844,16.8741,16.942,
8.76329,5.32301,8.93246,6.98016,2.96773,1.44238,0.441882,1.15908,3.79108,
4.24477,4.65492,5.75267,8.56347,5.3666,3.28766,2.96872,5.28091,6.87677,4.33598,
3.35454,5.56421,5.6676,5.74061,7.07199,8.03511,6.66747,3.98654,2.93159,3.77301,
2.14089,0.84627,2.19583,4.87628,5.87652,3.96798,3.31766,5.1592,3.8764,2.19546,
1.79145,1.79108,2.14064,2.79095,2.50889,2.86409,3.59409,5.45995,3.01667,4.21378,
4.4907,2.5631,2.15896,2.38694,0.809268,1.15883,3.38644,2.47176,1.4597,1.1592,
2.79108,3.50827,3.50815,2.77264,0.77276,0.0553171,0.386565,1.3862,1.73588,
1.40451,0.754445,1.05507,1.10376,2.01832,0.735882,0.0366313,0.00024682,0,0,0,0,
0,0,0,0,0,0,0,0,0,0,0,0,0,0,0,0,0,0,0,0,0,0,0

> <RDF_LpEN>
0,0,0,0,0,0,0,0,0,0,0.00119368,0.177157,3.5583,9.67247,3.5583,0.177157,
0.00119368,0,0.00161785,0.240111,4.82275,13.1096,4.82275,0.240111,0.00161785,0,
0,0,0,0,0,0,0,0,0,0,0.0019131,0.283929,5.70286,15.502,5.70286,0.283929,
0.0019131,0.00100946,0.149817,3.00916,8.17974,3.00916,0.149817,0.00100946,
0.0019131,0.283929,5.70286,15.502,5.70286,0.283929,0.0019131,0,0,0,0.00100946,
0.149817,3.00916,8.17974,3.00916,0.149817,0.00100946,0,0,0,0,0,0,0,0,0,0,0,0,0,
0,0,0,0,0,0,0,0,0,0,0,0,0,0,0,0,0,0,0,0,0,0,0,0,0,0,0,0,0,0,0,0,0,0,0,0,0,0,0,0,
0,0,0,0,0,0,0,0

> <RDF_PiChg>
0,0,0,0,0,0,0,0,0,-3.59482e-05,-0.00533643,-0.107344,-0.29496,-0.116824,
-0.00805563,0.000135645,1.64426e-05,1.1912e-07,9.30905e-06,0.00138176,0.0277758,
0.0759356,0.0288222,0.00166691,0.00187786,0.000808266,0.000158149,8.32439e-05,
-0.000695679,-0.000530798,-0.000112516,-3.55508e-06,2.92941e-05,5.55232e-05,
-0.000417565,-0.00141655,0.000240997,0.00361834,-0.00763271,-0.0252103,
-0.00889309,0.0163373,0.0488556,0.0182547,0.00151169,0.0109824,0.029132,
0.00913252,0.000903666,0.001225,-0.020669,-0.0580861,-0.0297352,-0.024509,
-0.00921944,-0.000652328,-6.32799e-05,-0.00045831,-0.000568181,-0.000232112,
-0.00291397,-0.00721435,0.00926204,0.0304694,0.0113475,0.000399854,-0.00074963,
-0.00046371,-7.88703e-05,-1.52393e-05,-3.3266e-06,5.18592e-05,0.000998948,
0.00272471,0.00116511,0.000464922,-0.000217449,-0.00103789,-0.000385482,
-9.47914e-06,2.70344e-05,1.41666e-05,8.80252e-06,1.69002e-06,-5.79539e-05,
0.000256338,0.00128622,0.000529767,3.6642e-05,7.98987e-07,1.07587e-06,
4.19377e-06,8.20821e-06,1.17523e-05,8.40805e-06,-6.2056e-06,-0.000381502,
-0.00104963,-0.000386224,-1.9229e-05,-1.29564e-07,0,0,0,0,0,0,0,0,0,0,0,0,0,0,0,
0,0,0,0,0,0,0,0,0,0,0,0

> <RDF_PiEN>
0,0,0,0,0,0,0,0,0,0.0265507,3.99138,86.7163,369.007,533.972,270.692,49.8857,
2.15708,0.0141913,0.00381947,0.569889,11.8744,45.8524,160.623,483.313,541.075,
165.598,87.4953,237.918,159.106,72.035,17.579,1.63804,16.8976,58.0835,89.7002,
151.281,203.39,294.874,138.657,48.5503,48.5129,171.779,278.386,151.806,42.9321,
72.1124,146.861,166.796,215.907,287.941,213.313,183.424,90.1641,106.77,73.1703,
27.1187,66.6272,157.92,171.498,116.764,102.631,191.53,179.378,88.2087,39.6662,
25.465,67.0139,98.6397,82.4854,90.2919,113.285,172.909,108.926,171.288,174.409,
133.457,93.2836,92.7832,31.614,37.0536,107.351,78.2321,46.3482,37.5265,105.341,
171.751,172.023,105.223,25.3745,1.75936,12.2011,43.7667,54.8667,44.4515,23.9033,
33.1914,29.7203,49.6494,18.0553,0.898724,0.00605555,0,0,0,0,0,0,0,0,0,0,0,0,0,0,
0,0,0,0,0,0,0,0,0,0,0,0,0

> <RDF_Polariz>
0,0,0,0,0,0,0,0,0,0.0172815,2.68026,68.6831,488.905,1085.89,712.51,416.223,
117.294,5.63434,0.0401245,0.371144,10.0252,91.7531,481.565,1201.03,1285.12,
713.2,424.29,614.422,409.22,178.043,108.751,35.6922,100.534,327.22,328.003,
284.104,398.429,640.501,425.943,215.341,146.751,267.189,403.21,275.513,252.305,
425.401,335.684,325.145,477.038,489.429,440.393,271.913,185.844,211.085,101.822,
43.4181,149.302,365.817,464.179,299.932,225.969,352.286,253.802,112.9,101.573,
112.452,108.802,156.409,170.043,222.205,259.86,387.809,188.478,226.704,286.33,
158.897,110.027,88.8153,28.4921,73.0058,219.768,165.967,91.9148,73.3909,168.324,
172.03,160.914,145.064,42.9609,3.22568,24.0986,84.6591,101.795,82.275,42.6436,
56.1358,43.643,65.7418,23.8288,1.18604,0.00799144,0,0,0,0,0,0,0,0,0,0,0,0,0,0,0,
0,0,0,0,0,0,0,0,0,0,0,0

> <RDF_SigChg>
0,0,0,0,0,0,0,0,0,-5.80698e-06,-0.000854337,-0.0161981,-0.0247479,0.0426695,
0.0198968,0.00183984,0.000528483,2.76315e-05,2.65625e-06,0.000364174,0.0070325,
0.0127072,-0.0276971,-0.053891,-0.0196244,-0.00626656,0.00323125,0.0185437,
0.0207608,0.0141161,0.00312273,-4.02266e-05,0.000469005,0.00202406,0.00772512,
0.0188206,-0.00381184,-0.0502064,-0.011715,0.0262728,0.0117431,0.00750525,
-0.0335164,0.00384743,0.0077287,0.00465234,0.0152829,0.0358115,0.0442636,
0.0586733,0.0183128,-0.0220471,0.00172465,0.0346763,0.01959,0.00839273,
0.0163983,0.0145499,0.00944813,0.00616979,0.00600895,-0.0162395,-0.00311565,
0.0287581,0.0218758,0.00425777,0.00925233,0.0121704,0.0043154,-0.0030485,
0.00425318,0.00948936,0.00355487,4.98886e-05,-0.00554677,-0.00700377,0.00666399,
0.0178584,0.00639381,0.00326717,0.00601685,-0.00220467,0.0011647,-0.000485107,
-0.00440968,-0.00110069,0.00355119,0.00737038,0.00258895,0.000167285,
0.000843571,0.00342445,0.00500889,0.00350473,0.00212798,0.00381849,0.00746054,
0.0168716,0.00618376,0.00030785,2.07428e-06,0,0,0,0,0,0,0,0,0,0,0,0,0,0,0,0,0,0,
0,0,0,0,0,0,0,0,0

> <RDF_SigEN>
0,0,0,0,0,0,0,0,0,0.0622718,9.36213,203.501,868.26,1272.33,745.045,348.469,
87.0882,4.09646,0.0556057,4.21456,87.5885,313.554,666.789,1473.37,1454.07,
754.841,418.116,731.627,722.947,307.577,109.775,30.9696,93.8231,318.591,411.939,
500.697,535.221,745.355,463.504,333.337,341.859,578.734,715.179,399.129,256.273,
478.51,631.735,607.419,652.975,779.874,584.779,371.715,284.993,425.127,257.548,
86.1545,175.435,390.359,466.144,306.044,293.952,515.076,398.441,268.875,170.65,
153.038,227.633,273.453,202.754,217.345,257.621,388.299,271.428,460.366,400.765,
228.543,205.147,277.257,97.0355,82.5244,239.037,183.054,104.838,86.7052,243.875,
380.622,374.7,227.301,54.5748,3.82125,27.0424,96.4597,119.864,97.6746,52.1701,
74.1713,117.085,251.195,91.9577,4.57789,0.0308456,0,0,0,0,0,0,0,0,0,0,0,0,0,0,0,
0,0,0,0,0,0,0,0,0,0,0,0

> <RDF_TotChg>
0,0,0,0,0,0,0,0,0,-6.97258e-05,-0.0103412,-0.206801,-0.542932,-0.127677,
0.0745767,0.0259668,0.00178226,3.83874e-05,2.15702e-05,0.00316891,0.0633993,
0.165491,0.00521269,-0.126173,-0.067854,-0.0318938,-0.00491749,0.0289764,
0.0628903,0.0344443,0.00573647,7.82807e-05,0.000808703,0.00529926,0.0198809,
0.0368119,-0.00916683,-0.0925152,-0.0204679,0.0429581,0.00749781,-0.0189566,
-0.136503,-0.0352954,0.00842908,0.0369615,0.105046,0.0901002,0.0815271,0.1266,
-0.0132775,-0.187983,-0.0500114,0.0646424,0.0430179,0.011751,0.0120145,
0.0164007,0.0140999,0.00432791,-0.0114392,-0.0562614,-0.00414799,0.113661,
0.0514809,0.00920027,0.0282602,0.0327617,0.00996754,-0.0026751,0.00388069,
0.00855828,9.01381e-05,-0.00934798,-0.020384,-0.0375395,0.00641857,0.0482096,
0.0177842,0.00339293,0.00479649,-0.00289565,0.000534861,-0.00102988,-0.0111193,
-0.0236278,-0.0168382,0.00104982,0.00196841,0.000143018,0.000754651,0.00308362,
0.00451953,0.00308455,0.00186289,0.00396506,0.0187303,0.0479151,0.0176068,
0.000876572,5.90629e-06,0,0,0,0,0,0,0,0,0,0,0,0,0,0,0,0,0,0,0,0,0,0,0,0,0,0,0

> <SurfACorr_ESP>
6.63198,6.03039,4.15371,0.119208,-3.86496,-6.71068,-6.78598,-2.22446,-0.374394,
0.049577,0.227376,0.0138567

> <SurfACorr_HBP>
0.0146988,0.00995894,0.000433679,0.000846105,-0.00578141,-0.0156602,-0.00791176,
0.00623059,0.000932911,1.82215e-05,0,0

> <SurfACorr_HPP>
0.000775337,0.00139929,0.00224255,0.00254257,0.00250356,0.00219975,0.0018399,
0.00148389,0.00123724,0.000962341,0.000647753,0.000342097

> <TPSA>
70.21

> <XlogP>
4.21911

> <mGluR5 Category>
Potentiator

> <mGluR5 Potentiator EC50>
3.8e-006

$$$$
