
ABcorina  11250611113D 1   1.00000     0.00000 
CORINA evaluation license 3.40 0066  02.08.2006
 45 47  0  0  0  0  0  0  0  0999 V2000
   -0.0053    1.4755    0.0332 C   0  0  0  0  0  0  0  0  0  0  0  0
    0.1439    0.0096   -0.0058 C   0  0  0  0  0  0  0  0  0  0  0  0
    1.1256    2.3031   -0.0509 C   0  0  0  0  0  0  0  0  0  0  0  0
    6.9994    2.5637   -1.5468 C   0  0  0  0  0  0  0  0  0  0  0  0
    2.3950    1.7432   -0.1717 N   0  0  0  0  0  0  0  0  0  0  0  0
    3.3941    2.4529   -0.7327 C   0  0  0  0  0  0  0  0  0  0  0  0
    5.6894    2.8506   -1.4126 N   0  0  0  0  0  0  0  0  0  0  0  0
   -1.2744    2.0505    0.1484 C   0  0  0  0  0  0  0  0  0  0  0  0
    0.0348   -0.6401    1.0162 O   0  0  0  0  0  0  0  0  0  0  0  0
    0.4262   -0.6706   -1.2872 C   0  0  0  0  0  0  0  0  0  0  0  0
    7.4384    1.5134   -1.1205 O   0  0  0  0  0  0  0  0  0  0  0  0
    0.9724    3.6825   -0.0135 C   0  0  0  0  0  0  0  0  0  0  0  0
    7.9026    3.5264   -2.2125 C   0  0  0  0  0  0  0  0  0  0  0  0
    3.1660    3.5393   -1.2212 O   0  0  0  0  0  0  0  0  0  0  0  0
    4.7945    1.8966   -0.7529 C   0  0  0  0  0  0  0  0  0  0  0  0
   -1.4067    3.4220    0.1838 C   0  0  0  0  0  0  0  0  0  0  0  0
   -0.2864    4.2358    0.1058 C   0  0  0  0  0  0  0  0  0  0  0  0
   -3.1243    4.1977    0.3390 Br  0  0  0  0  0  0  0  0  0  0  0  0
    0.4657   -2.0653   -1.3472 C   0  0  0  0  0  0  0  0  0  0  0  0
    0.6490    0.0783   -2.4448 C   0  0  0  0  0  0  0  0  0  0  0  0
    9.2598    3.2324   -2.3532 C   0  0  0  0  0  0  0  0  0  0  0  0
    7.4007    4.7309   -2.7082 C   0  0  0  0  0  0  0  0  0  0  0  0
    0.7293   -2.6936   -2.5465 C   0  0  0  0  0  0  0  0  0  0  0  0
    0.9114   -0.5630   -3.6374 C   0  0  0  0  0  0  0  0  0  0  0  0
   10.0971    4.1351   -2.9753 C   0  0  0  0  0  0  0  0  0  0  0  0
    8.2489    5.6249   -3.3283 C   0  0  0  0  0  0  0  0  0  0  0  0
    0.9547   -1.9452   -3.6885 C   0  0  0  0  0  0  0  0  0  0  0  0
    9.5943    5.3298   -3.4594 C   0  0  0  0  0  0  0  0  0  0  0  0
    2.5602    0.8423    0.1479 H   0  0  0  0  0  0  0  0  0  0  0  0
    5.3392    3.6887   -1.7527 H   0  0  0  0  0  0  0  0  0  0  0  0
   -2.1498    1.4210    0.2091 H   0  0  0  0  0  0  0  0  0  0  0  0
    1.8393    4.3233   -0.0775 H   0  0  0  0  0  0  0  0  0  0  0  0
    5.1331    1.7278    0.2693 H   0  0  0  0  0  0  0  0  0  0  0  0
    4.8028    0.9532   -1.2989 H   0  0  0  0  0  0  0  0  0  0  0  0
   -0.4001    5.3094    0.1343 H   0  0  0  0  0  0  0  0  0  0  0  0
    0.2907   -2.6505   -0.4566 H   0  0  0  0  0  0  0  0  0  0  0  0
    0.6154    1.1571   -2.4062 H   0  0  0  0  0  0  0  0  0  0  0  0
    9.6536    2.3004   -1.9754 H   0  0  0  0  0  0  0  0  0  0  0  0
    6.3507    4.9622   -2.6068 H   0  0  0  0  0  0  0  0  0  0  0  0
    0.7601   -3.7721   -2.5944 H   0  0  0  0  0  0  0  0  0  0  0  0
    1.0838    0.0150   -4.5333 H   0  0  0  0  0  0  0  0  0  0  0  0
   11.1475    3.9090   -3.0845 H   0  0  0  0  0  0  0  0  0  0  0  0
    7.8618    6.5570   -3.7126 H   0  0  0  0  0  0  0  0  0  0  0  0
    1.1613   -2.4422   -4.6248 H   0  0  0  0  0  0  0  0  0  0  0  0
   10.2541    6.0331   -3.9457 H   0  0  0  0  0  0  0  0  0  0  0  0
  1  2  1  0  0  0  0
  1  3  2  0  0  0  0
  1  8  1  0  0  0  0
  2  9  2  0  0  0  0
  2 10  1  0  0  0  0
  3  5  1  0  0  0  0
  3 12  1  0  0  0  0
  4  7  1  0  0  0  0
  4 11  2  0  0  0  0
  4 13  1  0  0  0  0
  5  6  1  0  0  0  0
  5 29  1  0  0  0  0
  6 14  2  0  0  0  0
  6 15  1  0  0  0  0
  7 15  1  0  0  0  0
  7 30  1  0  0  0  0
  8 16  2  0  0  0  0
  8 31  1  0  0  0  0
 10 19  1  0  0  0  0
 10 20  2  0  0  0  0
 12 17  2  0  0  0  0
 12 32  1  0  0  0  0
 13 21  1  0  0  0  0
 13 22  2  0  0  0  0
 15 33  1  0  0  0  0
 15 34  1  0  0  0  0
 16 17  1  0  0  0  0
 16 18  1  0  0  0  0
 17 35  1  0  0  0  0
 19 23  2  0  0  0  0
 19 36  1  0  0  0  0
 20 24  1  0  0  0  0
 20 37  1  0  0  0  0
 21 25  2  0  0  0  0
 21 38  1  0  0  0  0
 22 26  1  0  0  0  0
 22 39  1  0  0  0  0
 23 27  1  0  0  0  0
 23 40  1  0  0  0  0
 24 27  2  0  0  0  0
 24 41  1  0  0  0  0
 25 28  1  0  0  0  0
 25 42  1  0  0  0  0
 26 28  2  0  0  0  0
 26 43  1  0  0  0  0
 27 44  1  0  0  0  0
 28 45  1  0  0  0  0
M  END
> <2DACorr_Ident>
28,30,40,41,38,39,35,32,27,24,23

> <2DACorr_LpEN>
95.6181,0,28.382,33.3987,19.2219,64.7065,11.7916,29.117,17.9568,11.2614,13.4663

> <2DACorr_PiChg>
0.170768,-0.022962,-0.0322015,-0.0183066,-0.016008,-0.0278956,0.0289711,
0.00539132,-0.0293238,0.0438273,-0.0155142

> <2DACorr_PiEN>
948.599,934.224,1210.92,1294.42,1223.04,1221.75,1062.42,990.392,867.418,802.947,
788.982

> <2DACorr_Polariz>
2357.43,2709.38,3606.08,3648.55,3251.7,3148,2768.2,2404.95,2058.23,1870.49,
1721.09

> <2DACorr_SigChg>
0.556775,-0.280597,0.0105679,0.173446,-0.0839813,0.155265,0.0109366,0.167236,
0.0184611,0.0293899,0.0380354

> <2DACorr_SigEN>
2575.85,2615.97,3487.33,3721.14,3632.19,3699.54,3196.64,2933.16,2470.06,2178.47,
2003.91

> <2DACorr_TotChg>
0.969357,-0.470738,0.0543894,0.0826801,-0.146339,0.165179,0.00687931,0.248269,
-0.130822,0.155233,0.0448963

> <3DACorr_Ident>
30,59,29,55,32,34,35,30,29,22,18,3

> <3DACorr_LpEN>
0,41.0805,39.9221,9.52294,43.9897,37.0859,15.0166,11.2614,17.9568,13.4663,0,0

> <3DACorr_PiChg>
-0.022962,-0.0525769,-0.0233845,0.0194347,-0.00244621,-0.00532682,-0.0158866,
0.0142771,0.00897455,-0.00421661,0.000388115,-0.00191126

> <3DACorr_PiEN>
934.224,1826.66,973.786,1849.95,872.296,929.983,1195.5,1010.88,955.527,717.395,
605.888,105.058

> <3DACorr_Polariz>
2709.38,5137.35,2671.19,4428.71,2493.57,2550.22,2582.9,2372.54,2301.73,1609.2,
1243.11,168.545

> <3DACorr_SigChg>
-0.280597,0.0516887,0.156566,-0.0306571,0.170853,-0.00835439,0.169829,0.0586862,
0.0157507,0.0261146,0.0293639,0.0264779

> <3DACorr_SigEN>
2615.97,5191.91,2762.25,5337.44,2866.52,3082.78,3275.39,2689.83,2305.77,1763.85,
1408.96,285.013

> <3DACorr_TotChg>
-0.470738,0.0993517,-0.0393146,0.0131935,0.244887,0.00340208,0.130101,0.0977041,
0.00893693,0.0302647,0.0402958,0.0244314

> <Dipole>
3.52649

> <Formula>
C22H17BrN2O3

> <HAcc>
5

> <HDon>
2

> <ID_Number>
0450-0062

> <LogS>
-6.42061

> <MolWeight>
437.286

> <Mol_ID>
58

> <Muscarinic Category>
Antagonist

> <Muscarinic EC50>
2.19E-07

> <Polariz>
44.564

> <RDF_Ident>
0,0,0,0,0,0,0,0,0,0.000370229,0.0574151,1.47057,10.4493,22.9614,12.7804,3.2062,
0.480241,0.386812,1.00012,0.368126,0.0564278,0.958508,6.83606,21.234,28.2432,
11.987,8.29687,14.0008,9.46987,3.05968,0.847504,1.46007,2.84001,4.46007,3.05429,
6.09619,10.1877,12.6852,6.52593,3.43468,4.82705,10.6857,10.4884,7.51288,5.74209,
5.44735,7.65414,13.985,16.4195,14.1065,10.2678,6.12767,3.98728,3.58265,3.94966,
5.2449,5.2509,3.80774,7.61903,7.77161,7.53157,8.8815,10.5618,10.8075,7.42155,
3.61928,1.25115,2.5277,4.84652,4.78955,8.40949,9.89331,10.8624,9.19406,7.09042,
4.96872,2.94991,3.1597,2.84602,2.61265,5.1469,4.06585,6.55165,5.13936,7.39056,
8.34841,6.31754,2.96847,2.2144,3.1592,3.50877,3.21403,3.29947,5.56396,5.68554,
6.05355,6.96847,5.42118,5.93135,4.50901,1.21415,0.84664,3.17776,5.28054,6.61191,
5.5454,1.96859,2.2691,5.22646,6.54515,4.0533,4.6001,4.85845,3.17715,1.17739,
1.42332,1.75494,1.84578,3.24415,5.77251,3.22572,1.45958,0.386812,0.018439,
0.00024682,0.0183156,0.367879,1

> <RDF_LpEN>
0,0,0,0,0,0,0,0,0,0,0,0,0,0,0,0,0,0,0,0.00350262,0.519835,10.4412,28.382,
10.4427,0.752416,4.67502,12.6985,4.67152,0.232581,0.00156712,0,0,0.00237217,
0.354616,7.45047,26.8371,27.7715,7.96723,0.381509,0.0025546,0,0,0,0,0.00117522,
0.174419,3.50329,9.52294,3.50521,0.458744,5.71199,15.5236,5.71082,0.28578,
0.217887,4.33996,12.097,10.4749,17.3114,14.5915,23.2909,8.45794,0.422734,
0.261095,5.18725,14.1004,5.18725,0.260111,0.276779,5.52431,15.0166,5.52431,
0.275039,0.0018532,0,0,0,0.00138976,0.206259,4.14282,11.2614,4.14282,0.206259,
0.00138976,0,0,0,0.00221605,0.328891,6.60595,17.9568,6.60595,0.328891,
0.00221605,0,0,0,0,0,0,0,0,0,0,0,0,0.00166187,0.246644,4.95398,13.4663,4.95398,
0.246644,0.00166187,0,0,0,0,0,0,0,0,0,0,0,0,0,0,0

> <RDF_PiChg>
0,0,0,0,0,0,0,0,0,-5.65093e-06,-0.000835048,-0.016308,-0.0350969,0.0102594,
0.00379856,-0.00173709,-0.00011627,-0.000139519,-0.000377184,-0.000145522,
-0.00100866,-0.0198577,-0.0486113,-0.00153457,0.0125082,-0.000234068,-0.0259532,
-0.0144682,0.00400452,0.00202671,-0.000474875,-0.0013165,-0.00248376,
-0.00507492,-0.0117092,-0.0199325,0.0123458,0.00475684,-0.00466659,-0.00929184,
-0.00987403,-0.0201768,-0.00448443,0.00239937,0.00231253,0.00492765,0.0185079,
0.0486924,0.00762941,-0.0126981,-0.0132031,-0.0362055,-0.0116089,0.00155061,
0.00243108,0.0105465,0.0259692,0.00969282,0.00086366,0.000262479,0.00128497,
-0.00281081,-0.00507477,-0.00175013,-0.0106652,-0.00675665,-0.00131809,
0.000500744,0.00459578,0.00120636,-0.0154153,-0.00576303,-0.00246728,0.00620823,
0.00648041,0.000434028,-0.000691799,-0.00317633,-0.00247038,0.00568042,
0.0172749,0.00570994,-0.00147027,-3.25263e-05,0.00168204,0.000656925,
-0.000135982,-0.00150232,-0.00221585,-0.000208404,0.00421143,0.00679154,
0.00212351,0.000317154,0.00164945,0.00103842,0.000779412,-0.00121889,
-0.00177889,0.000417042,0.000376286,2.56858e-05,0.000126848,0.000801413,
0.000878735,-0.00155229,-0.000751771,-6.41744e-05,-0.00137011,-0.00398997,
-0.00151997,-0.000164569,0.00027585,0.000640786,0.000228893,1.67485e-05,
-0.000159626,-0.000483291,-0.0001553,0.000276209,-0.000654858,-0.00216516,
-0.000800552,-3.98703e-05,-2.37578e-07,4.61225e-06,9.26395e-05,0.00025182

> <RDF_PiEN>
0,0,0,0,0,0,0,0,0,0.0187841,2.86494,67.4568,384.503,729.036,363.471,59.5809,
2.95424,9.69181,26.3012,9.68449,1.84008,33.7308,231.252,669.745,829.897,354.153,
257.735,460.578,295.333,90.8449,32.2912,64.025,103.189,158.888,118.181,233.983,
329.241,377.09,179.216,127.282,183.359,371.963,310.619,215.75,189.478,194.675,
283.861,511.326,546.378,435.675,275.621,183.583,135.414,102.828,96.9036,136.821,
107.569,94.5923,227.184,234.837,197.016,188.526,289.865,278.53,182.773,108.16,
41.6269,84.8019,172.39,175.666,291.902,316.611,355.972,312.349,236.018,173.558,
107.105,117.812,112.156,116.272,237.157,160.941,212.552,134.589,216.378,259.937,
198.015,98.7638,82.0544,100.782,106.24,109.588,109.253,182.139,194.277,195.905,
219.968,176.654,207.039,154.168,40.5252,26.7634,100.836,170.284,220.04,194.73,
68.9759,71.8884,164.175,206.278,129.712,154.788,171.69,105.186,37.0313,45.3528,
55.5251,63.7369,119.462,188.907,105.229,62.5024,18.725,0.909648,0.00957908,
0.5154,10.3521,28.1399

> <RDF_Polariz>
0,0,0,0,0,0,0,0,0,0.0220672,3.49198,98.0494,836.616,2049.64,1289.54,334.823,
41.573,32.4279,84.0787,30.9398,3.50066,54.1452,478.811,1794.17,2699.47,1138.25,
619.315,1135.96,825.764,304.397,84.824,139.52,321.817,473.501,277.368,514.687,
948.997,1174.35,593.69,254.74,374.169,862.502,886.4,638.629,477.937,486.725,
644.244,1105.94,1247.81,1076.9,820.815,498.389,292.495,285.358,325.503,423.709,
355.056,252.233,557.119,664.269,666.303,695.69,770.428,836.992,532.43,239.513,
86.2881,182.215,333.663,312.058,563.457,732.039,910.981,736.215,540.319,356.198,
207.604,192.463,164.171,158.281,320.012,272.5,464.66,381.414,617.127,752.145,
582.317,279.445,170.826,248.292,272.492,226.092,235.055,416.898,431.803,514.73,
603.85,470.365,459.712,350.343,96.4017,64.8168,233.194,365.23,451.927,368.686,
136.606,190.925,428.315,492.269,287.107,329.458,311.076,223.562,87.6503,95.8429,
115.11,126.926,217.949,410.719,211.648,76.9945,19.2105,0.909196,0.0137606,
1.1401,22.8995,62.2472

> <RDF_SigChg>
0,0,0,0,0,0,0,0,0,-2.16672e-05,-0.00323014,-0.0667321,-0.218642,-0.181946,
-0.0412982,0.0158561,0.00675324,-0.00143576,-0.00483254,-0.00176151,0.00245123,
0.0506413,0.128456,-0.012859,-0.11391,-0.0152493,0.05506,0.0379648,-0.0243221,
-0.0151012,0.00168628,0.00855363,0.0018396,-0.00343163,0.0358968,0.150443,
0.17796,0.0361383,-0.0311339,-0.0780651,-0.0410527,-0.0201587,-0.0289782,
-0.00516117,0.0391916,0.0264834,0.0333049,0.0125372,-0.11657,0.0100858,
0.0626678,0.0826888,0.0530267,0.00349624,-0.0169052,0.00693465,0.0414784,
0.0297522,0.0393636,0.0153186,-0.00157907,-0.0118394,0.0132587,-0.0435472,
-0.00784065,0.02725,0.0104928,-0.00242846,-0.00839045,0.0424449,0.118067,
0.0751833,0.0132385,0.0206417,0.0421988,-0.026145,-0.0137125,0.0258714,
0.0101344,0.00325553,0.00843279,0.00344175,-0.00122231,-0.00416176,0.00838299,
0.0213198,0.0353649,0.0202561,0.0100378,0.00581787,0.0109519,-0.0042557,
-0.000541345,0.000735554,-0.00339887,-0.00166545,0.00132678,0.00404528,
0.0138632,0.00142731,-0.00136391,0.000727775,0.00453853,-0.000139246,-0.0177528,
0.00660723,0.0062224,0.00308753,0.0106708,0.0245521,0.00882261,0.000360826,
0.0144925,-0.00603859,-0.00375252,0.00393055,0.00374136,0.00434933,0.0178838,
0.0153176,0.0144318,0.0185612,0.00613747,0.000301189,2.5892e-06,8.37605e-05,
0.00168237,0.00457317

> <RDF_SigEN>
0,0,0,0,0,0,0,0,0,0.0542777,8.24352,189.757,1008.64,1855.65,1062.5,292.883,
45.7688,37.8548,97.9691,36.0669,6.44202,110.66,677.615,1871.28,2382.08,1065.57,
803.805,1187.01,805.947,258.932,79.7684,151.972,256.79,399.883,298.292,617.282,
949.998,1130.67,594.314,396.11,517.465,1078.9,948.939,666.384,512.346,491.297,
752.054,1446.51,1677.71,1334.72,923.69,557.531,371.551,327.419,326.586,447.93,
536.443,378.409,684.748,646.468,648.046,751.948,927.659,945.656,693.312,367.2,
117.991,219.051,467.452,475.406,787.065,880.181,970.188,837.286,671.451,522.614,
299.365,303.965,286.399,302.329,620.644,405.971,543.679,434.922,611.226,663.504,
518.605,271.518,215.614,265.941,314.98,296.56,256.561,421.127,458.077,465.693,
523.626,417.783,472.609,351.303,92.7391,60.7777,225.793,391.66,541.101,457.039,
156.149,164.6,412.485,568.375,330.35,358.952,400.616,280.228,98.8739,98.8924,
123.965,150.135,271.65,430.738,260.054,148.481,42.084,2.02442,0.0244299,1.61205,
32.3788,88.0148

> <RDF_TotChg>
0,0,0,0,0,0,0,0,0,-5.02168e-05,-0.00746258,-0.151142,-0.436142,-0.231803,
-0.0364284,0.0218926,0.00971196,-0.000244913,-0.00200421,-0.000723403,
0.00220737,0.0448659,0.11685,0.0111056,-0.0493348,0.0153973,0.0331013,0.0316685,
-0.0179591,-0.0111178,0.00280413,0.00872069,-0.0082417,-0.0316713,0.0124125,
0.104688,0.127052,-0.00712792,-0.0708078,-0.155426,-0.0787179,-0.0478936,
-0.0416397,-0.00924817,0.0298763,0.0396231,0.0979363,0.142468,-0.159092,
-0.0183508,0.0515592,0.0549543,0.0385482,-0.00909773,-0.0203283,0.04358,
0.145931,0.0719224,0.0522274,0.0240302,0.00820285,-0.00128221,0.00621886,
-0.0756042,-0.0355976,0.0292037,0.014596,0.0023761,0.00988241,0.0740888,
0.133209,0.0682016,0.00997873,0.0202814,0.0463566,-0.0752851,-0.0368643,
0.0217814,0.0132959,0.0295597,0.0767165,0.0283254,-0.00028744,-0.00536791,
-0.000635047,0.00307087,0.01444,0.0124128,0.012051,0.00538336,0.00244954,
-0.00793309,-0.00143744,0.00222274,0.00029687,-0.000497069,-1.08473e-05,
0.00545411,0.0136688,0.000769135,-0.00150306,0.000635941,0.00334457,-0.00598817,
-0.0280083,0.00210206,0.0054648,0.00326575,0.0175394,0.0408265,0.0130329,
-0.000338401,0.0200996,-0.00113976,-0.00289391,0.00312624,0.00418339,0.00893814,
0.0250682,0.015484,0.013182,0.0191486,0.00647542,0.000318752,2.44994e-06,
4.54169e-05,0.000912223,0.00247968

> <SurfACorr_ESP>
4.65987,3.90113,-1.35836,-5.11004,-3.2388,-0.147682,0.59388,0.502361,-0.362873,
0.344297,0.605109,0.580525

> <SurfACorr_HBP>
0.00375083,0.000189706,-0.00429537,-0.00542936,-0.00165137,0.00200618,0.0015937,
-0.000229139,0.000514018,0.00066696,2.99009e-05,1.84075e-07

> <SurfACorr_HPP>
0.000539718,0.000917708,0.00133146,0.0012013,0.00108004,0.000885489,0.000829218,
0.000892608,0.000983912,0.00103295,0.000990562,0.000877129

> <TPSA>
75.27

> <XlogP>
4.95373

> <mGluR5 Category>
Potentiator

> <mGluR5 Potentiator EC50>
3.36e-006

$$$$
