
ABcorina  11250611113D 1   1.00000     0.00000 
CORINA evaluation license 3.40 0066  02.08.2006
 38 40  0  0  0  0  0  0  0  0999 V2000
    0.4893    1.4910    0.1005 C   0  0  0  0  0  0  0  0  0  0  0  0
    0.4422    0.0170    0.1180 C   0  0  0  0  0  0  0  0  0  0  0  0
    1.7762    2.1915    0.2926 C   0  0  0  0  0  0  0  0  0  0  0  0
   -0.5300    2.1297   -0.0771 O   0  0  0  0  0  0  0  0  0  0  0  0
    0.3101   -4.1084    0.1654 O   0  0  0  0  0  0  0  0  0  0  0  0
    1.9483    3.4889   -0.1949 C   0  0  0  0  0  0  0  0  0  0  0  0
    2.8240    1.5613    0.9676 C   0  0  0  0  0  0  0  0  0  0  0  0
   -0.7557   -0.6429    0.4108 C   0  0  0  0  0  0  0  0  0  0  0  0
    1.5939   -0.7248   -0.1637 C   0  0  0  0  0  0  0  0  0  0  0  0
    0.3536   -2.7524    0.1501 C   0  0  0  0  0  0  0  0  0  0  0  0
    1.5455   -2.1002   -0.1467 C   0  0  0  0  0  0  0  0  0  0  0  0
   -0.7953   -2.0187    0.4256 C   0  0  0  0  0  0  0  0  0  0  0  0
    4.0223    2.2212    1.1438 C   0  0  0  0  0  0  0  0  0  0  0  0
    3.1519    4.1370   -0.0116 C   0  0  0  0  0  0  0  0  0  0  0  0
    0.6651   -4.7451    1.3120 C   0  0  0  0  0  0  0  0  0  0  0  0
    4.1877    3.5047    0.6536 C   0  0  0  0  0  0  0  0  0  0  0  0
    5.4997    4.2195    0.8504 C   0  0  0  0  0  0  0  0  0  0  0  0
    1.0489   -4.0104    2.4248 C   0  0  0  0  0  0  0  0  0  0  0  0
    0.6390   -6.1311    1.3741 C   0  0  0  0  0  0  0  0  0  0  0  0
    1.0004   -6.7760    2.5410 C   0  0  0  0  0  0  0  0  0  0  0  0
    1.4094   -4.6602    3.5893 C   0  0  0  0  0  0  0  0  0  0  0  0
    1.3880   -6.0416    3.6466 C   0  0  0  0  0  0  0  0  0  0  0  0
    1.1409    3.9834   -0.7145 H   0  0  0  0  0  0  0  0  0  0  0  0
    2.6961    0.5598    1.3510 H   0  0  0  0  0  0  0  0  0  0  0  0
   -1.6482   -0.0739    0.6252 H   0  0  0  0  0  0  0  0  0  0  0  0
    2.5199   -0.2191   -0.3946 H   0  0  0  0  0  0  0  0  0  0  0  0
    2.4354   -2.6738   -0.3601 H   0  0  0  0  0  0  0  0  0  0  0  0
   -1.7198   -2.5291    0.6515 H   0  0  0  0  0  0  0  0  0  0  0  0
    4.8332    1.7353    1.6659 H   0  0  0  0  0  0  0  0  0  0  0  0
    3.2864    5.1403   -0.3880 H   0  0  0  0  0  0  0  0  0  0  0  0
    6.1586    4.0078    0.0083 H   0  0  0  0  0  0  0  0  0  0  0  0
    5.3228    5.2932    0.9124 H   0  0  0  0  0  0  0  0  0  0  0  0
    5.9667    3.8743    1.7729 H   0  0  0  0  0  0  0  0  0  0  0  0
    1.0662   -2.9315    2.3804 H   0  0  0  0  0  0  0  0  0  0  0  0
    0.3361   -6.7051    0.5109 H   0  0  0  0  0  0  0  0  0  0  0  0
    0.9799   -7.8547    2.5899 H   0  0  0  0  0  0  0  0  0  0  0  0
    1.7086   -4.0888    4.4555 H   0  0  0  0  0  0  0  0  0  0  0  0
    1.6698   -6.5477    4.5581 H   0  0  0  0  0  0  0  0  0  0  0  0
  1  2  1  0  0  0  0
  1  3  1  0  0  0  0
  1  4  2  0  0  0  0
  2  8  2  0  0  0  0
  2  9  1  0  0  0  0
  3  6  2  0  0  0  0
  3  7  1  0  0  0  0
  5 10  1  0  0  0  0
  5 15  1  0  0  0  0
  6 14  1  0  0  0  0
  6 23  1  0  0  0  0
  7 13  2  0  0  0  0
  7 24  1  0  0  0  0
  8 12  1  0  0  0  0
  8 25  1  0  0  0  0
  9 11  2  0  0  0  0
  9 26  1  0  0  0  0
 10 11  1  0  0  0  0
 10 12  2  0  0  0  0
 11 27  1  0  0  0  0
 12 28  1  0  0  0  0
 13 16  1  0  0  0  0
 13 29  1  0  0  0  0
 14 16  2  0  0  0  0
 14 30  1  0  0  0  0
 15 18  2  0  0  0  0
 15 19  1  0  0  0  0
 16 17  1  0  0  0  0
 17 31  1  0  0  0  0
 17 32  1  0  0  0  0
 17 33  1  0  0  0  0
 18 21  1  0  0  0  0
 18 34  1  0  0  0  0
 19 20  2  0  0  0  0
 19 35  1  0  0  0  0
 20 22  1  0  0  0  0
 20 36  1  0  0  0  0
 21 22  2  0  0  0  0
 21 37  1  0  0  0  0
 22 38  1  0  0  0  0
M  END
> <2DACorr_Ident>
22,24,32,31,25,24,21,16,14,13,12

> <2DACorr_LpEN>
41.0567,0,0,0,0,0,19.6419,0,0,0,0

> <2DACorr_PiChg>
0.0295691,-0.00938153,0.00766115,-0.0136336,0.0113254,-0.00883462,-0.00497557,
-0.00497881,0.00838821,-0.00152625,0.00279982

> <2DACorr_PiEN>
731.171,768.088,1020.48,1032.76,842.357,771.264,641.05,483.478,432.875,423.303,
360.413

> <2DACorr_Polariz>
1808.32,2062.59,2732.6,2619.92,2110.24,1991.71,1686.89,1299.1,1088.43,968.324,
840.629

> <2DACorr_SigChg>
0.283611,-0.102972,0.00163399,0.0887179,0.0575415,-0.0618357,0.130367,
-0.0037975,0.0174689,0.0249196,0.0414273

> <2DACorr_SigEN>
1797.87,1936.83,2592.44,2585.06,2092.19,1898.58,1669.09,1296.36,1182.69,1067.47,
906.411

> <2DACorr_TotChg>
0.356427,-0.166168,0.0466364,0.0228194,0.128309,-0.0957712,0.167583,-0.0596402,
0.0394746,0.0192372,0.0561712

> <3DACorr_Ident>
24,47,19,33,21,25,20,16,13,9,3,1

> <3DACorr_LpEN>
0,0,0,0,0,19.6419,0,0,0,0,0,0

> <3DACorr_PiChg>
-0.00938153,-2.8953e-05,-0.00455755,0.00112476,0.00135085,-0.00448035,
-0.00323215,0.00426639,0.00100171,-0.000838256,-9.45452e-06,-3.60013e-17

> <3DACorr_PiEN>
768.088,1529.44,615.034,1131.39,641.338,765.515,624.479,479.608,378.978,219.931,
31.4165,0

> <3DACorr_Polariz>
2062.59,3997.52,1607.49,2733.95,1759.5,1985.91,1564.16,1207.77,853.101,580.734,
164.366,48.4047

> <3DACorr_SigChg>
-0.102972,0.0328145,0.0615394,0.0448475,-0.0567467,0.152681,0.00283545,
0.0171865,0.0580865,0.0161847,0.00661281,0.00219333

> <3DACorr_SigEN>
1936.83,3784.86,1608.5,2787.87,1590.65,2015.51,1632.24,1272.1,1007.71,624.611,
196.756,63.143

> <3DACorr_TotChg>
-0.166168,0.069969,0.0059959,0.0803931,-0.0606993,0.186998,-0.0285202,0.0124544,
0.0743502,0.0140256,0.00800555,0.00205102

> <Dipole>
3.9702

> <Formula>
C20H16O2

> <HAcc>
2

> <HDon>
0

> <ID_Number>
0091-0062

> <LogS>
-5.88343

> <MolWeight>
288.34

> <Mol_ID>
6

> <Muscarinic Category>
Baseline Increase

> <Muscarinic EC50>
1.03E-05

> <Polariz>
35.96

> <RDF_Ident>
0,0,0,0,0,0,0,0,0,0.00012341,0.0207838,0.734439,8.39434,21.122,9.74378,2.1022,
0.406979,0.0185625,0.00012341,0,0.00197456,0.294655,6.12454,20.8375,20.0091,
8.60857,5.70982,10.5647,7.06548,3.28716,1.19645,1.79108,2.73625,1.79132,1.23284,
3.98629,8.32935,9.24428,3.72242,1.67435,4.60108,7.38467,9.05305,7.40311,4.98679,
2.96835,3.52782,3.8829,3.7528,7.88253,6.41492,5.86434,1.93221,1.25078,4.15957,
5.26222,5.26247,4.19571,1.91328,2.46044,2.56371,4.28128,6.60022,6.12055,7.63673,
5.73461,5.25041,3.24502,2.49658,1.89496,3.79108,3.50877,2.58154,3.52696,4.14101,
2.58154,2.89496,4.44164,2.61203,3.45958,2.47226,1.45983,1.17739,3.14076,4.15896,
3.28079,4.19559,3.87677,3.2139,2.91315,4.15896,3.50864,2.19546,2.15908,2.77264,
2.12232,1.44127,1.1222,2.01869,0.77276,0.809145,2.75432,3.10364,1.77264,
0.441389,0.754321,2.00037,0.77239,0.77239,2.00025,0.735759,0.0370015,0.0551937,
1.10364,3,1.10364,0.0549469,0.000493639,0.0183156,0.367879,1,0.367879,0.0183156,
0.00012341,0,0,0,0

> <RDF_LpEN>
0,0,0,0,0,0,0,0,0,0,0,0,0,0,0,0,0,0,0,0,0,0,0,0,0,0,0,0,0,0,0,0,0,0,0,0,0,0,0,0,
0,0,0,0,0,0,0,0,0,0,0,0,0,0,0,0,0,0,0,0.002424,0.359754,7.22585,19.6419,7.22585,
0.359754,0.002424,0,0,0,0,0,0,0,0,0,0,0,0,0,0,0,0,0,0,0,0,0,0,0,0,0,0,0,0,0,0,0,
0,0,0,0,0,0,0,0,0,0,0,0,0,0,0,0,0,0,0,0,0,0,0,0,0,0,0,0,0,0,0

> <RDF_PiChg>
0,0,0,0,0,0,0,0,0,-7.7276e-07,-0.000114824,-0.00232409,-0.00670593,-0.00415117,
-0.00253458,-0.000761434,-3.69981e-05,-2.48371e-07,-2.71753e-20,0,1.36848e-07,
2.10748e-05,0.000521483,0.00339503,0.00671964,0.00229388,-0.00161518,
-0.00421914,-0.00485329,-0.00201883,-0.000457003,-0.000412315,0.000153225,
0.000526151,-0.00119313,-0.00309806,-0.000162126,-0.00226905,-0.00131362,
-0.000233904,-0.000113492,0.00124858,0.00324486,0.00196606,0.00162845,
0.000718789,0.00171517,0.00330328,-0.00148454,-0.00698408,-0.00230543,
-0.0011813,-0.000486494,9.13794e-05,0.000474355,0.00166747,0.00324997,
0.000370807,-0.000765429,-0.00150548,-0.00113253,-0.00346536,-0.00780987,
-0.00196668,0.000223119,0.000140479,0.000214419,0.00122515,0.00307387,
0.00112849,-0.000628358,-0.00217613,-0.000603061,0.000482428,-0.000491819,
-0.000303764,-0.000161559,-0.000289358,-0.000397159,-0.000941564,-0.000718994,
-0.000364331,-0.000480814,8.77523e-05,0.00378428,0.00309822,0.000893596,
7.54579e-05,0.000323414,0.000606447,0.000971959,0.00182057,0.00057695,
-0.000204177,-0.000477229,-0.000181091,-2.76737e-05,-0.000132471,-0.000350189,
-0.000128858,-2.03223e-05,-0.000284476,-0.000873823,-0.000595055,-0.000128168,
3.65676e-05,0.000115385,4.4658e-05,4.6326e-05,0.000120195,4.42122e-05,
2.20003e-06,-1.58334e-07,-3.47812e-06,-9.45452e-06,-3.47812e-06,-1.73166e-07,
-1.16678e-09,-6.59386e-19,-1.32441e-17,-3.60013e-17,-1.32441e-17,-6.59386e-19,
-4.44291e-21,0,0,0,0

> <RDF_PiEN>
0,0,0,0,0,0,0,0,0,0.00649293,1.04382,31.2642,292.853,693.296,305.707,36.0795,
1.28364,0.00810882,0,0,0.0712727,10.6288,220.037,730.165,637.367,209.082,
156.495,344.262,260.064,116.967,37.9899,55.068,82.5429,53.7662,52.2439,176.744,
296.852,250.415,97.1786,53.269,164.525,274.903,281.205,223.009,152.467,90.6374,
119.811,156.003,144.58,287.758,219.646,186.171,60.6303,38.6082,128.499,167.187,
166.055,104.469,48.5423,76.6323,80.8673,149.553,239.08,172.227,208.47,159.732,
135.886,98.3482,94.5408,64.8341,124.244,130.18,88.6172,115.805,130.1,53.7967,
83.6778,151.122,81.39,94.3303,71.8042,45.378,37.817,106.043,150.085,109.778,
110.689,107.965,71.4299,81.4444,135.877,127.086,74.8622,63.6246,73.5568,61.6009,
44.4408,23.4906,31.4363,11.3633,1.71611,23.6243,74.3143,54.8208,13.9775,23.5115,
62.3197,24.0798,24.3999,63.2314,23.2587,1.16186,0.583216,11.5575,31.4165,
11.5575,0.575414,0.00387711,0,0,0,0,0,0,0,0,0,0

> <RDF_Polariz>
0,0,0,0,0,0,0,0,0,0.00878931,1.51325,57.22,698.142,1809.14,888.509,175.79,
24.8511,1.034,0.00676365,0,0.155003,23.158,484.875,1718.01,1793.43,757.739,
472.418,869.366,573.171,308.905,119.127,158.75,233.372,146.727,85.9436,288.524,
687.725,815.862,349.598,148.35,367.444,587.173,796.943,676.898,432.238,237.22,
268.468,265.807,294.665,668.833,565.312,537.104,176.767,91.5312,299.269,400.216,
446.568,345.094,158.811,214.459,215.884,359.697,545.794,503.332,620.213,459.184,
405.286,236.86,163.675,145.069,314.79,274.388,209.097,292.84,333.828,191.243,
230.884,362.727,193.68,227.37,174.277,102.85,86.3438,241.339,326.275,253.7,
311.057,286.933,233.522,213.54,280.075,220.78,160.37,153.409,159.415,128.126,
93.2247,76.1822,140.12,53.1279,45.2948,161.817,202.72,115.16,27.8975,53.8809,
143.368,55.0528,49.2086,126.644,46.5831,2.33952,3.02609,60.4668,164.366,60.4668,
3.01046,0.026258,0.886564,17.8071,48.4047,17.8071,0.886564,0.00597362,0,0,0,0

> <RDF_SigChg>
0,0,0,0,0,0,0,0,0,-6.51359e-06,-0.000974078,-0.0205104,-0.0746249,-0.0763002,
-0.014535,0.00357765,0.000807484,3.44623e-05,2.25765e-07,0,3.48765e-06,
0.000513745,0.00982301,0.0168152,-0.0192651,-0.00722046,0.00131809,0.0165022,
0.0309786,0.00886898,-0.00125783,-0.00355999,-0.00273229,0.000520863,0.0114172,
0.0518469,0.0682395,-0.00404221,-0.0106297,-0.000812562,0.0121472,0.0416858,
0.0268835,7.06388e-05,-0.00413995,0.00106355,0.00802069,0.0176261,-2.13752e-05,
-0.0180597,-0.00665183,0.00542426,0.00253689,0.00244816,0.00713414,-0.0144919,
-0.0609786,-0.0272628,-0.00523921,-0.00614313,0.0024411,0.044055,0.115773,
0.0617561,0.0145987,0.00417426,0.00196991,0.00669221,0.011804,0.00419323,
-0.011553,-0.0380558,-0.0161671,0.00123347,0.0142301,0.00629748,0.00290184,
0.00914637,0.0104016,0.0198079,0.00953578,0.0036638,-0.00253197,-0.00884186,
0.00445607,0.0130678,0.00182139,0.0167288,0.00575803,-0.00120521,0.0131079,
0.0214071,0.00426359,0.000567917,0.0160564,0.0105506,0.00501136,0.00659305,
0.0145706,0.00530964,-0.000248769,3.69e-05,0.00480139,0.00442321,0.00121127,
0.00170314,0.00448721,0.00176235,0.00233177,0.00611561,0.0022496,0.000112817,
0.000121872,0.00243272,0.00661281,0.00243272,0.000121118,1.08676e-06,
4.01723e-05,0.000806883,0.00219333,0.000806883,4.01723e-05,2.70679e-07,0,0,0,0

> <RDF_SigEN>
0,0,0,0,0,0,0,0,0,0.0175032,2.78769,80.3965,711.693,1663.35,784.123,162.548,
27.1754,1.19237,0.0078747,0,0.169275,25.2477,523.189,1748.27,1595.91,648.209,
428.867,811.259,594.368,271.683,94.3014,145.033,213.97,136.207,119.661,394.843,
726.486,753.623,293.832,126.998,381.432,668.376,742.921,571.012,377.151,220.029,
290.094,372.074,349.766,699.017,521.307,441.821,144.521,88.2443,292.804,385.557,
417.635,324.486,149.355,198.496,192.399,342.009,582.993,522.275,619.274,436.785,
379.914,245.37,217.896,158.23,317.815,333.956,219.453,273.476,323.196,189.841,
223.974,362.201,213.998,278.858,186.977,102.616,90.3462,262.436,367.611,279.977,
330.353,298.527,236.028,215.785,308.221,286.253,177.184,177.317,232.983,159.86,
99.8488,82.5448,153.587,58.5749,55.9689,190.477,216.415,123.275,30.5668,52.7456,
139.916,53.9847,53.2156,137.707,50.6534,2.54617,3.62071,72.3825,196.756,72.3825,
3.60371,0.0320741,1.1565,23.229,63.143,23.229,1.1565,0.00779246,0,0,0,0

> <RDF_TotChg>
0,0,0,0,0,0,0,0,0,-1.19171e-05,-0.00177739,-0.0368218,-0.122623,-0.106249,
-0.0271936,-0.000245579,0.000349243,1.75979e-05,1.18336e-07,0,7.79359e-06,
0.00115408,0.0228484,0.05551,0.00375507,-0.00465776,-0.00413618,0.0108333,
0.028203,0.00990235,-0.0018153,-0.00730059,-0.00462832,0.00184569,0.0111905,
0.0389751,0.0285453,-0.0364428,-0.0181926,-0.0011413,0.0206864,0.0743727,
0.0531516,0.0110081,0.00276967,0.00517593,0.0174633,0.036683,-0.00604321,
-0.0535593,-0.0207308,0.00505742,0.00283302,0.003261,0.00996376,-0.0116755,
-0.0607,-0.0288451,-0.00800781,-0.0120351,0.000555199,0.04489,0.122247,
0.0763013,0.0293705,0.00810657,0.00171663,0.0100169,0.0236974,0.00893939,
-0.0176322,-0.0588431,-0.0218832,0.00202513,0.00972556,0.00506305,-0.00210273,
-0.00690657,0.00631599,0.0249746,0.0118189,0.00346056,-0.00477495,-0.010265,
0.0126589,0.00687128,-0.00651665,0.0135863,0.00726676,0.00191781,0.0195291,
0.0336589,0.00891297,0.00204829,0.0219864,0.0128001,0.00498435,0.00568809,
0.012185,0.00441614,-0.000628186,-0.00101904,0.00370923,0.00325335,0.000843121,
0.00189374,0.0050555,0.00196354,0.00218284,0.00568256,0.00209027,0.000105056,
0.000147328,0.00294508,0.00800555,0.00294508,0.000146627,1.24108e-06,
3.75657e-05,0.000754526,0.00205102,0.000754526,3.75657e-05,2.53115e-07,0,0,0,0

> <SurfACorr_ESP>
3.80492,4.24055,1.51735,-1.76733,-3.38243,-2.86005,-1.13983,0.242428,0.214872,
-0.555179,-1.2946,-0.946474

> <SurfACorr_HBP>
0.0027499,0.00326365,0.000617734,0.000108205,0.000945544,0.00219089,0.00266768,
0.00303417,0.000290779,2.77309e-06,5.85268e-09,0

> <SurfACorr_HPP>
0.000825135,0.00150452,0.00254138,0.00298599,0.00303358,0.00260741,0.00213341,
0.00187183,0.00159413,0.00132039,0.00104005,0.000759558

> <TPSA>
26.3

> <XlogP>
5.50885

> <mGluR5 Category>
Potentiator

> <mGluR5 Potentiator EC50>
1.28e-005

$$$$
