Largest isolated from
BBcorina  09161916033D 1   1.00000     0.00000 
CORINA 4.1.0 0026  01.08.2017
 41 43  0  0  0  0  0  0  0  0999 V2000
   -2.8765    0.9984   -0.3318 S   0  0  0  1  0  0  0  0  0  0  0  0
   -3.3209    1.4796   -2.0234 C   0  0  0  1  0  0  0  0  0  0  0  0
   -2.5626   -0.3862   -0.2734 O   0  0  0  1  0  0  0  0  0  0  0  0
   -3.7682    1.5876    0.6047 O   0  0  0  1  0  0  0  0  0  0  0  0
   -1.3387    1.8056   -0.0347 C   0  0  0  1  0  0  0  0  0  0  0  0
   -0.1792    1.0619    0.0837 C   0  0  0  1  0  0  0  0  0  0  0  0
    1.0279    1.6955    0.3110 C   0  0  0  1  0  0  0  0  0  0  0  0
    1.0751    3.0725    0.4257 C   0  0  0  1  0  0  0  0  0  0  0  0
    2.0183    3.5675    0.6040 H   0  0  0  1  0  0  0  0  0  0  0  0
   -0.0848    3.8155    0.3126 C   0  0  0  1  0  0  0  0  0  0  0  0
   -1.2921    3.1818    0.0839 C   0  0  0  1  0  0  0  0  0  0  0  0
   -2.5568    3.9920   -0.0400 C   0  0  0  1  0  0  0  0  0  0  0  0
   -3.2673    3.9872    1.2412 N   0  0  0  1  0  0  0  0  0  0  0  0
   -4.3850    4.7245    1.3948 C   0  0  0  1  0  0  0  0  0  0  0  0
   -4.8037    5.3938    0.4698 O   0  0  0  1  0  0  0  0  0  0  0  0
   -8.7402    7.3709    0.9013 F   0  0  0  1  0  0  0  0  0  0  0  0
   -0.2160   -0.0137   -0.0059 H   0  0  0  1  0  0  0  0  0  0  0  0
    1.9343    1.1149    0.3993 H   0  0  0  1  0  0  0  0  0  0  0  0
   -0.0480    4.8911    0.4026 H   0  0  0  1  0  0  0  0  0  0  0  0
   -2.3063    5.0172   -0.3126 H   0  0  0  1  0  0  0  0  0  0  0  0
   -3.1934    3.5565   -0.8101 H   0  0  0  1  0  0  0  0  0  0  0  0
   -2.9332    3.4533    1.9790 H   0  0  0  1  0  0  0  0  0  0  0  0
   -2.5964    1.0615   -2.7223 H   0  0  0  1  0  0  0  0  0  0  0  0
   -4.3148    1.0998   -2.2600 H   0  0  0  1  0  0  0  0  0  0  0  0
   -3.3185    2.5666   -2.1045 H   0  0  0  1  0  0  0  0  0  0  0  0
   -6.4403    4.6907    5.1573 C   0  0  0  1  0  0  0  0  0  0  0  0
   -5.2457    4.0579    4.9988 C   0  0  0  1  0  0  0  0  0  0  0  0
   -6.9717    6.0862    1.7578 C   0  0  0  1  0  0  0  0  0  0  0  0
   -7.0360    5.3761    4.0854 C   0  0  0  1  0  0  0  0  0  0  0  0
   -6.3821    5.4059    2.8287 C   0  0  0  1  0  0  0  0  0  0  0  0
   -4.5720    4.0579    3.7848 C   0  0  0  1  0  0  0  0  0  0  0  0
   -8.1714    6.7141    1.9359 C   0  0  0  1  0  0  0  0  0  0  0  0
   -8.8167    6.6866    3.1723 C   0  0  0  1  0  0  0  0  0  0  0  0
   -8.2692    6.0339    4.2339 C   0  0  0  1  0  0  0  0  0  0  0  0
   -5.0999    4.7196    2.6840 C   0  0  0  1  0  0  0  0  0  0  0  0
   -6.9353    4.6655    6.1168 H   0  0  0  1  0  0  0  0  0  0  0  0
   -4.8113    3.5385    5.8401 H   0  0  0  1  0  0  0  0  0  0  0  0
   -6.4810    6.1148    0.7962 H   0  0  0  1  0  0  0  0  0  0  0  0
   -3.6276    3.5415    3.6968 H   0  0  0  1  0  0  0  0  0  0  0  0
   -9.7645    7.1909    3.2890 H   0  0  0  1  0  0  0  0  0  0  0  0
   -8.7798    6.0215    5.1855 H   0  0  0  1  0  0  0  0  0  0  0  0
  1  2  1  0  0  0  0
  1  3  2  0  0  0  0
  1  4  2  0  0  0  0
  1  5  1  0  0  0  0
  2 23  1  0  0  0  0
  2 24  1  0  0  0  0
  2 25  1  0  0  0  0
  5  6  1  0  0  0  0
  5 11  2  0  0  0  0
  6  7  2  0  0  0  0
  6 17  1  0  0  0  0
  7  8  1  0  0  0  0
  7 18  1  0  0  0  0
  8  9  1  0  0  0  0
  8 10  2  0  0  0  0
 10 11  1  0  0  0  0
 10 19  1  0  0  0  0
 11 12  1  0  0  0  0
 12 13  1  0  0  0  0
 12 20  1  0  0  0  0
 12 21  1  0  0  0  0
 13 14  1  0  0  0  0
 13 22  1  0  0  0  0
 14 15  2  0  0  0  0
 14 35  1  0  0  0  0
 16 32  1  0  0  0  0
 26 27  2  0  0  0  0
 26 29  1  0  0  0  0
 26 36  1  0  0  0  0
 27 31  1  0  0  0  0
 27 37  1  0  0  0  0
 28 30  2  0  0  0  0
 28 32  1  0  0  0  0
 28 38  1  0  0  0  0
 29 30  1  0  0  0  0
 29 34  2  0  0  0  0
 30 35  1  0  0  0  0
 31 35  2  0  0  0  0
 31 39  1  0  0  0  0
 32 33  2  0  0  0  0
 33 34  1  0  0  0  0
 33 40  1  0  0  0  0
 34 41  1  0  0  0  0
M  END
> <FLDR_Score>
-5.42483

> <predicted_pKd_ddr1>
5.64312

> <predicted_partition_index_ddr1>
0.139109

$$$$
