Benzene
automatically built MDL file
written by SmallMoleculeFactory::WriteToMDLFile method
 12 12  0  0  0  0  0  0  0  0  1 V2000
    1.8870   -1.0340   -0.1050  C  0  0  0  0  0  0  0  0  0  0  0  0
    0.8180   -0.4380    0.5640  C  0  0  0  0  0  0  0  0  0  0  0  0
    2.9370   -1.5970    0.6200  C  0  0  0  0  0  0  0  0  0  0  0  0
    0.7990   -0.4060    1.9590  C  0  0  0  0  0  0  0  0  0  0  0  0
    2.9180   -1.5650    2.0140  C  0  0  0  0  0  0  0  0  0  0  0  0
    1.8500   -0.9690    2.6840  C  0  0  0  0  0  0  0  0  0  0  0  0
    1.9010   -1.0600   -1.1910  H  0  0  0  0  0  0  0  0  0  0  0  0
    0.0000    0.0000    0.0000  H  0  0  0  0  0  0  0  0  0  0  0  0
    3.7690   -2.0610    0.0980  H  0  0  0  0  0  0  0  0  0  0  0  0
   -0.0330    0.0580    2.4800  H  0  0  0  0  0  0  0  0  0  0  0  0
    3.7360   -2.0030    2.5780  H  0  0  0  0  0  0  0  0  0  0  0  0
    1.8350   -0.9440    3.7690  H  0  0  0  0  0  0  0  0  0  0  0  0
  1  2  2  0  0  0  0
  1  3  1  0  0  0  0
  1  7  1  0  0  0  0
  2  4  1  0  0  0  0
  2  8  1  0  0  0  0
  3  5  2  0  0  0  0
  3  9  1  0  0  0  0
  4  6  2  0  0  0  0
  4 10  1  0  0  0  0
  5  6  1  0  0  0  0
  5 11  1  0  0  0  0
  6 12  1  0  0  0  0
M  END
> <Dipole>
0.00106934

> <HAcc>
0

> <HDon>
0

> <LogS>
-1.78116

> <NRotBond>
0

> <PEOE_PC+>
0.370549

> <PEOE_PC->
-0.370549

> <PEOE_VSA+0>
0

> <PEOE_VSA+1>
25.5923

> <PEOE_VSA+2>
0

> <PEOE_VSA+3>
0

> <PEOE_VSA+4>
0

> <PEOE_VSA+5>
0

> <PEOE_VSA+6>
0

> <PEOE_VSA-0>
0

> <PEOE_VSA-1>
73.5294

> <PEOE_VSA-2>
0

> <PEOE_VSA-3>
0

> <PEOE_VSA-4>
0

> <PEOE_VSA-5>
0

> <PEOE_VSA-6>
0

> <Polariz>
10.434

> <TPSA>
0

> <VSA>
112.142

> <Weight>
78.1118

> <XlogP>
2.01934

> <bcl_EffectiveAtomPolarizability>
nan nan nan nan nan nan nan nan nan nan nan nan 

> <bcl_Identity>
1 1 1 1 1 1 1 1 1 1 1 1 

> <bcl_LonePairEN>
0 0 0 0 0 0 0 0 0 0 0 0 

> <bcl_PiCharge>
-4.44089e-16 -2.22045e-16 -6.66134e-16 -6.66134e-16 -2.22045e-16 0 0 0 0 0 0 0 

> <bcl_PiEN>
5.6 5.6 5.6 5.6 5.6 5.6 0 0 0 0 0 0 

> <bcl_SigmaCharge>
-0.0626491 -0.0626491 -0.0626491 -0.0626491 -0.0626491 -0.0626491 0.0626491 0.0626491 0.0626491 0.0626491 0.0626491 0.0626491 

> <bcl_SigmaEN>
8.21165 8.21165 8.21165 8.21165 8.21165 8.21165 7.55875 7.55875 7.55875 7.55875 7.55875 7.55875 

> <bcl_TotalCharge>
-0.0626491 -0.0626491 -0.0626491 -0.0626491 -0.0626491 -0.0626491 0.0626491 0.0626491 0.0626491 0.0626491 0.0626491 0.0626491 

> <vdw_area>
99.1217

$$$$
