3016
JWcorina  01200915283D 1   1.00000     0.00000 
CORINA 3.44 0023  09.01.2008
 33 35  0     0  0  0  0  0  0999 V2000
   -0.2586   -4.4817    0.1072 Cl  0  0  0  0  0  0  0  0  0  0  0  0
    0.9780    3.3804    0.0658 O   0  0  0  0  0  0  0  0  0  0  0  0
   -0.0004    1.4174   -0.0042 N   0  0  0  0  0  0  0  0  0  0  0  0
    2.6228    0.8764   -1.3390 N   0  0  0  0  0  0  0  0  0  0  0  0
    0.8691   -0.7341   -0.7792 C   0  0  0  0  0  0  0  0  0  0  0  0
   -0.0113    0.0308   -0.0169 C   0  0  0  0  0  0  0  0  0  0  0  0
    1.9029   -0.1444   -1.6441 C   0  0  0  0  0  0  0  0  0  0  0  0
    2.4718    1.5739   -0.0630 C   0  0  0  0  0  0  0  0  0  0  0  0
    1.0942    2.1747    0.0037 C   0  0  0  0  0  0  0  0  0  0  0  0
    2.1313   -0.7737   -2.9657 C   0  0  0  0  0  0  0  0  0  0  0  0
    0.7814   -2.1340   -0.7320 C   0  0  0  0  0  0  0  0  0  0  0  0
   -0.9608   -0.6104    0.7815 C   0  0  0  0  0  0  0  0  0  0  0  0
   -1.2953    2.1025   -0.0054 C   0  0  0  0  0  0  0  0  0  0  0  0
   -0.1616   -2.7491    0.0599 C   0  0  0  0  0  0  0  0  0  0  0  0
   -1.0344   -1.9852    0.8190 C   0  0  0  0  0  0  0  0  0  0  0  0
    1.1213   -1.5235   -3.5681 C   0  0  0  0  0  0  0  0  0  0  0  0
    3.3551   -0.6138   -3.6152 C   0  0  0  0  0  0  0  0  0  0  0  0
    1.3400   -2.1072   -4.7991 C   0  0  0  0  0  0  0  0  0  0  0  0
    3.5619   -1.2023   -4.8460 C   0  0  0  0  0  0  0  0  0  0  0  0
    2.5583   -1.9501   -5.4356 C   0  0  0  0  0  0  0  0  0  0  0  0
    2.6024    0.8675    0.7568 H   0  0  0  0  0  0  0  0  0  0  0  0
    3.2185    2.3644    0.0115 H   0  0  0  0  0  0  0  0  0  0  0  0
    1.4593   -2.7334   -1.3215 H   0  0  0  0  0  0  0  0  0  0  0  0
   -1.6442   -0.0222    1.3760 H   0  0  0  0  0  0  0  0  0  0  0  0
   -1.6224    2.2631    1.0219 H   0  0  0  0  0  0  0  0  0  0  0  0
   -1.1973    3.0638   -0.5099 H   0  0  0  0  0  0  0  0  0  0  0  0
   -2.0297    1.4906   -0.5291 H   0  0  0  0  0  0  0  0  0  0  0  0
   -1.7731   -2.4688    1.4410 H   0  0  0  0  0  0  0  0  0  0  0  0
    0.1701   -1.6474   -3.0718 H   0  0  0  0  0  0  0  0  0  0  0  0
    4.1393   -0.0303   -3.1559 H   0  0  0  0  0  0  0  0  0  0  0  0
    0.5587   -2.6880   -5.2666 H   0  0  0  0  0  0  0  0  0  0  0  0
    4.5091   -1.0792   -5.3499 H   0  0  0  0  0  0  0  0  0  0  0  0
    2.7250   -2.4094   -6.3987 H   0  0  0  0  0  0  0  0  0  0  0  0
  1 14  1  0  0  0  0
  2  9  2  0  0  0  0
  3  6  1  0  0  0  0
  3  9  1  0  0  0  0
  3 13  1  0  0  0  0
  4  7  2  0  0  0  0
  4  8  1  0  0  0  0
  5  6  2  0  0  0  0
  5  7  1  0  0  0  0
  5 11  1  0  0  0  0
  6 12  1  0  0  0  0
  7 10  1  0  0  0  0
  8  9  1  0  0  0  0
  8 21  1  0  0  0  0
  8 22  1  0  0  0  0
 10 16  2  0  0  0  0
 10 17  1  0  0  0  0
 11 14  2  0  0  0  0
 11 23  1  0  0  0  0
 12 15  2  0  0  0  0
 12 24  1  0  0  0  0
 13 25  1  0  0  0  0
 13 26  1  0  0  0  0
 13 27  1  0  0  0  0
 14 15  1  0  0  0  0
 15 28  1  0  0  0  0
 16 18  1  0  0  0  0
 16 29  1  0  0  0  0
 17 19  2  0  0  0  0
 17 30  1  0  0  0  0
 18 20  2  0  0  0  0
 18 31  1  0  0  0  0
 19 20  1  0  0  0  0
 19 32  1  0  0  0  0
 20 33  1  0  0  0  0
M  END
> <PUBCHEM_COMPOUND_CID>
3016

> <PUBCHEM_COMPOUND_CANONICALIZED>
1

> <PUBCHEM_CACTVS_COMPLEXITY>
403

> <PUBCHEM_CACTVS_HBOND_ACCEPTOR>
2

> <PUBCHEM_CACTVS_HBOND_DONOR>
0

> <PUBCHEM_CACTVS_ROTATABLE_BOND>
1

> <PUBCHEM_CACTVS_SUBSKEYS>
AAADccB7IAAEAAAAAAAAAAAAAAAAAAAAAAAwYAAABAAAAAABQAAAHgIAAAAADArBmCQywIMAAACoAyVyVACCAAAhBwAIiACoZpgIYKLBk5GUIAhghgDIyAcQgMAOAABAIAACAAAAAIBAAAQAAAAAAAAAAA==

> <PUBCHEM_IUPAC_OPENEYE_NAME>
7-chloro-1-methyl-5-phenyl-3H-1,4-benzodiazepin-2-one

> <PUBCHEM_IUPAC_CAS_NAME>
7-chloro-1-methyl-5-phenyl-3H-1,4-benzodiazepin-2-one

> <PUBCHEM_IUPAC_NAME>
7-chloro-1-methyl-5-phenyl-3H-1,4-benzodiazepin-2-one

> <PUBCHEM_IUPAC_SYSTEMATIC_NAME>
7-chloro-1-methyl-5-phenyl-3H-1,4-benzodiazepin-2-one

> <PUBCHEM_IUPAC_TRADITIONAL_NAME>
7-chloro-1-methyl-5-phenyl-3H-1,4-benzodiazepin-2-one

> <PUBCHEM_NIST_INCHI>
InChI=1/C16H13ClN2O/c1-19-14-8-7-12(17)9-13(14)16(18-10-15(19)20)11-5-3-2-4-6-11/h2-9H,10H2,1H3

> <PUBCHEM_CACTVS_XLOGP>
2.9

> <PUBCHEM_EXACT_MASS>
284.071641

> <PUBCHEM_MOLECULAR_FORMULA>
C16H13ClN2O

> <PUBCHEM_MOLECULAR_WEIGHT>
284.74022

> <PUBCHEM_OPENEYE_CAN_SMILES>
CN1C(=O)CN=C(C2=C1C=CC(=C2)Cl)C3=CC=CC=C3

> <PUBCHEM_OPENEYE_ISO_SMILES>
CN1C(=O)CN=C(C2=C1C=CC(=C2)Cl)C3=CC=CC=C3

> <PUBCHEM_CACTVS_TPSA>
32.7

> <PUBCHEM_MONOISOTOPIC_WEIGHT>
284.071641

> <PUBCHEM_TOTAL_CHARGE>
0

> <PUBCHEM_HEAVY_ATOM_COUNT>
20

> <PUBCHEM_ATOM_DEF_STEREO_COUNT>
0

> <PUBCHEM_ATOM_UDEF_STEREO_COUNT>
0

> <PUBCHEM_BOND_DEF_STEREO_COUNT>
0

> <PUBCHEM_BOND_UDEF_STEREO_COUNT>
0

> <PUBCHEM_ISOTOPIC_ATOM_COUNT>
0

> <PUBCHEM_COMPONENT_COUNT>
1

> <PUBCHEM_CACTVS_TAUTO_COUNT>
1

> <PUBCHEM_BONDANNOTATIONS>
10  16  8
10  17  8
11  14  8
12  15  8
14  15  8
16  18  8
17  19  8
18  20  8
19  20  8
5  11  8
5  6  8
6  12  8

> <Weight>
284.74

> <HDon>
0

> <HAcc>
3

> <XlogP>
2.92048

> <TPSA>
32.67

> <Polariz>
32.717

> <Dipole>
3.94236

> <LogS>
-4.14405

> <NRotBond>
1

> <NViolationsRo5>
0

> <NViolationsExtRo5>
0

> <NAtoms>
33

> <NStereo>
0

> <Complexity>
375.683

> <RComplexity>
1.11765

> <Diameter>
9.78762

> <InertiaX>
2853.25

> <InertiaY>
1694.26

> <InertiaZ>
1507.84

> <Span>
5.70341

> <Rgyr>
3.26085

> <Eccentric>
0.804611

> <Aspheric>
0.0434734

> <2DACorr_Ident>
33,35,58,75,79,84,78,60,38,17,4

> <2DACorr_SigChg>
0.354364,-0.162357,-0.0704277,0.133661,-0.136755,0.0897227,-0.0337339,0.0115118,
-0.00900906,-0.0104811,0.0106853

> <2DACorr_PiChg>
0.144513,-0.0288589,-0.035157,-0.0121695,0.0108245,-0.00645343,0.00157817,
0.00110756,-0.00312791,-2.93628e-17,-5.63335e-32

> <2DACorr_TotChg>
0.681798,-0.30093,-0.14078,0.25526,-0.145768,0.0472533,-0.096393,0.0627809,
-0.0158497,-0.0171571,0.0106853

> <2DACorr_SigEN>
2475.81,2685.2,4408.3,5795.36,5955.91,6090.47,5595.84,4327.68,2534.13,1061.26,
224.648

> <2DACorr_PiEN>
637.557,641.605,883.158,1025.92,856.698,806.127,625.784,395.967,112.966,0,0

> <2DACorr_LpEN>
67.1443,0,16.5941,8.38663,0,33.3821,0,17.0041,0,0,0

> <2DACorr_Polariz>
2328.83,2948.19,4623.64,5815.97,5583.15,5179.36,4208.84,2755.3,1401.98,490.274,
86.7163

> <3DACorr_Ident>
39,104,66,105,73,67,46,22,6,0,0,0

> <3DACorr_SigChg>
-0.154647,-0.017607,0.0126813,-0.005394,0.0381384,-0.111924,0.0795852,
-0.0373207,0.0193054,0,0,0

> <3DACorr_PiChg>
-0.0288589,-0.0516787,0.00526052,0.00736755,-0.00336795,0.00594746,-0.00692642,
-3.43598e-17,-3.08149e-33,0,0,0

> <3DACorr_TotChg>
-0.29322,-0.055767,0.0326339,0.0510644,-0.00955889,-0.186132,0.153984,
-0.0532088,0.0193054,0,0,0

> <3DACorr_SigEN>
2906.58,7875.86,4867.89,7559.62,5397.59,4958.07,3319.76,1453.91,339.533,0,0,0

> <3DACorr_PiEN>
641.605,1320.01,590.789,1047.71,717.014,690.854,340.24,0,0,0,0,0

> <3DACorr_LpEN>
0,21.8143,3.16644,0,28.0329,5.34917,17.0041,0,0,0,0,0

> <3DACorr_Polariz>
3033.5,7955.83,4560.91,6657.04,4287.6,3675.26,2000.61,769.55,153.112,0,0,0

> <RDF_Ident>
0,0,0,0,0,0,0,0.00160433,0.238103,4.78268,13.0382,5.75691,7.11224,15.5951,
10.1876,3.16933,2.30046,5.01955,1.93344,2.2791,12.0099,21.3936,12.2374,20.4468,
33.1033,20.7899,12.9646,15.7844,15.241,14.8813,7.23353,2.75786,10.083,20.8956,
10.2777,6.84404,12.0603,17.5237,19.1624,14.095,14.4745,20.2101,26.2847,19.3015,
15.5596,17.6538,18.5316,14.4501,15.5354,22.303,21.4008,16.3817,12.3526,14.5394,
9.57898,11.9546,12.1775,8.09479,9.67356,13.3416,14.3141,18.0405,13.8801,10.8678,
12.3051,11.6663,10.5687,8.00395,9.5505,10.5808,10.5989,9.91838,9.00321,10.8266,
9.45855,5.86306,6.0421,6.40373,7.35442,6.4218,6.37273,6.03523,5.91365,3.61854,
2.64904,5.07388,2.59384,2.4779,2.12269,1.79083,1.77276,1.77264,1.77251,1.7542,
1.38644,0.404634,0.386318,1.00012,0.367879,0.0183156,0.00012341,0,0,0,0,0,0,0,0,
0,0,0,0,0,0,0,0,0,0,0,0,0,0,0,0,0,0,0

> <RDF_SigChg>
0,0,0,0,0,0,0,-1.18498e-06,-0.000175867,-0.0035425,-0.0111095,-0.0347257,
-0.103811,-0.0986012,-0.0439966,0.0141465,0.00881412,-0.000689161,-0.00147929,
-0.0200575,-0.0321652,0.0453659,0.00973206,-0.0422982,-0.0928806,-0.046682,
0.00204396,0.0174205,0.033452,0.0615662,0.00412736,-0.000238089,0.029768,
0.0438454,0.00526269,-0.00330935,0.00884261,-0.00343143,-0.0165642,-0.0186308,
-0.0282656,-0.0157237,-0.00901892,-0.0217085,-0.0155031,-0.0155437,0.0152482,
-0.00676035,-0.00124092,0.0750958,0.0381446,-0.0242692,0.00287284,0.0265889,
0.000757995,0.00456192,-0.0130816,-0.00467228,0.0105006,0.0289506,-0.000497526,
-0.00496356,-0.00176881,-0.0157725,-0.0309976,-0.0193207,-0.0478668,-0.0313764,
-0.00437024,-0.0125067,0.0154284,0.0476965,0.0350974,0.026748,-0.00389443,
-0.0121548,-0.0113325,-0.00109453,0.0103297,0.0149927,-0.00362296,-0.0136332,
-0.0117212,-0.00808931,-0.000350018,0.00500784,0.000908135,-0.00757183,
-0.0155734,-0.00209394,0.00564153,0.00644852,0.00645024,0.00593202,0.00375664,
0.000972175,0.000904948,0.00234233,0.00086159,4.28961e-05,2.89031e-07,0,0,0,0,0,
0,0,0,0,0,0,0,0,0,0,0,0,0,0,0,0,0,0,0,0,0,0

> <RDF_PiChg>
0,0,0,0,0,0,0,1.47839e-21,2.19412e-19,-5.17832e-06,-0.000766041,-0.0150675,
-0.0346581,0.0022873,-2.74616e-05,-0.00210155,-0.000266104,-0.000398186,
-0.000150488,-0.000646462,-0.0128385,-0.0349205,-0.0133606,-0.00350143,
-0.00331146,0.00349695,0.000958619,-0.0039292,-0.00888198,-0.0163212,-0.0176018,
-0.0045623,0.0150436,0.0386417,0.00414033,-0.00967101,-0.00606827,-0.0060396,
-0.00254966,-0.00837226,-0.0227442,-0.00879955,0.00836814,0.00891174,0.0143215,
0.00593243,0.00456502,0.0111842,0.00332892,-0.00309472,-0.00211427,3.95502e-05,
0.00362456,0.00426508,2.52253e-05,-0.0034592,-0.002383,-0.00310878,-0.00165647,
-0.00162762,-0.00235636,-0.00409215,0.00120177,0.00214987,0.000855325,
0.000258457,0.00069831,0.00289123,0.00458688,0.00309518,0.000710152,
-0.000178613,-0.000415339,-0.000208764,-3.44074e-05,-1.88388e-06,-6.7628e-05,
-0.0014016,-0.00468263,-0.00409481,-0.00107654,-5.07014e-05,-3.38569e-07,
-8.81387e-19,4.15088e-19,-1.27994e-19,-1.8616e-18,-1.28059e-17,-2.59875e-17,
-9.12122e-18,-4.51161e-19,-3.03678e-21,1.10168e-32,9.29651e-33,-1.4016e-32,
-7.37956e-33,-9.60226e-33,-2.51358e-32,-9.24606e-33,-4.60334e-34,-3.10171e-36,0,
0,0,0,0,0,0,0,0,0,0,0,0,0,0,0,0,0,0,0,0,0,0,0,0,0,0

> <RDF_TotChg>
0,0,0,0,0,0,0,-7.70063e-07,-0.000114287,-0.00232517,-0.0106424,-0.0911442,
-0.251068,-0.136519,-0.0616084,0.0149414,0.013945,0.00361621,-2.47361e-05,
-0.0214934,-0.0442535,0.0163562,-0.016986,-0.0837876,-0.133104,-0.041965,
0.0223763,0.0388727,0.0441133,0.059791,-0.042995,-0.0125235,0.101405,0.205524,
0.0344716,-0.0320992,-0.0247245,-0.0443123,-0.037124,-0.0516782,-0.0816863,
-0.011414,0.0177485,0.00323258,0.0254104,0.0237225,0.0446083,-0.00610247,
-0.00616757,0.0801781,0.0328479,-0.0388262,0.00658807,0.0343895,0.00984818,
0.00238921,-0.0306115,-0.0114891,-0.00188974,-0.00715313,-0.0349072,-0.0343454,
-0.00394217,-0.0183338,-0.0488122,-0.0352584,-0.0551505,-0.0451266,-0.0172086,
-0.0131697,0.026752,0.0725992,0.0498079,0.044652,0.0136034,-0.00604396,
-0.00959739,-0.00307169,0.0123683,0.0389784,0.00257411,-0.0139096,-0.013587,
-0.00817389,-5.04953e-05,0.00505301,0.000968001,-0.0111662,-0.0270643,
-0.00640679,0.00542622,0.00644707,0.00645024,0.00593202,0.00375664,0.000972175,
0.000904948,0.00234233,0.00086159,4.28961e-05,2.89031e-07,0,0,0,0,0,0,0,0,0,0,0,
0,0,0,0,0,0,0,0,0,0,0,0,0,0,0,0

> <RDF_SigEN>
0,0,0,0,0,0,0,0.101174,15.0156,301.626,824.412,409.742,635.983,1247.92,823.139,
276.197,164.425,327.868,126.646,162.235,850.859,1516.71,924.404,1589.24,2508.9,
1548.8,979.731,1213.83,1193,1225.75,639.68,229.973,715.3,1474,779.983,542.478,
923.575,1317.64,1321.09,1004.24,1094.62,1474.79,1879.94,1399.49,1144.96,1217.45,
1285.02,1063.7,1120.41,1601.25,1602.77,1243.49,913.01,1026.1,669.571,842.165,
923.004,625.23,685.827,983.249,1039.83,1383.87,1132.43,819.762,887.312,812.573,
797.247,621.137,653.118,744.329,774.282,733.618,634.635,756.454,637.508,386.95,
414.141,439.835,569.488,548.89,508.642,405.855,367.439,225.41,157.535,294.217,
153.266,165.532,167.924,117.447,101.365,100.901,100.888,99.4928,77.9071,22.6402,
21.5972,55.9118,20.5663,1.02393,0.00689921,0,0,0,0,0,0,0,0,0,0,0,0,0,0,0,0,0,0,
0,0,0,0,0,0,0,0,0

> <RDF_PiEN>
0,0,0,0,0,0,0,0,0,0.0119412,1.82318,43.17,250.463,485.184,253.56,44.9165,
13.6901,32.1132,11.8143,1.34383,15.2141,45.4571,106.896,403.983,587.961,253.264,
129.24,277.413,212.878,255.112,152.953,32.703,22.5943,73.9705,96.298,123.081,
185.4,263.719,102.515,93.1962,212.537,263.804,283.272,179.744,122.801,68.9981,
68.7244,169.359,178.275,262.626,299.217,259.014,135.232,95.9843,86.2066,102.804,
78.8362,60.3779,45.5664,81.4224,104.731,247.23,226.208,183.206,155.96,71.8724,
40.2747,85.6103,71.4338,62.8921,65.8334,93.0131,138.381,111.511,29.797,1.41519,
0.847685,17.5855,62.8368,63.9842,18.22,0.871285,0.00583288,0,0,0,0,0,0,0,0,0,0,
0,0,0,0,0,0,0,0,0,0,0,0,0,0,0,0,0,0,0,0,0,0,0,0,0,0,0,0,0,0,0,0,0,0,0

> <RDF_LpEN>
0,0,0,0,0,0,0,0,0,0,0,0,0,0,0,0,0,0,0.00204788,0.303932,6.10464,16.5941,6.10464,
0.303932,0.00204788,0,0.000644222,0.095611,1.9204,5.22019,1.92079,0.153606,
1.16551,3.16644,1.16487,0.0579954,0.00039077,0,0,0,0,0,0,0,0,0,0,0,0,0,0,0,0,0,
0,0,0.00345954,0.513441,10.3127,28.0336,10.4107,2.48129,5.35263,1.96785,
0.0979734,0.000660139,0,0,0,0,0,0,0,0,0,0,0.00209848,0.311442,6.25547,17.0041,
6.25547,0.311442,0.00209848,0,0,0,0,0,0,0,0,0,0,0,0,0,0,0,0,0,0,0,0,0,0,0,0,0,0,
0,0,0,0,0,0,0,0,0,0,0,0,0,0,0,0,0,0,0

> <RDF_Polariz>
0,0,0,0,0,0,0,0.0741281,11.0016,220.995,604.1,311.567,701.754,1668.74,1189.08,
348.905,99.8132,160.058,62.9382,112.102,625.003,1144.05,742.518,1686.74,2880.27,
1731.14,995.165,1307.26,1252.39,1326.36,661.71,199.379,565.679,1187.91,640.668,
519.686,990.658,1567.8,1279.1,856.632,1033.51,1505.92,1768.75,1195.9,819.565,
893.953,1071.59,974.764,1026.34,1419.69,1480.75,1134.49,748.846,868.396,570.849,
593.364,622.683,408.884,492.299,646.644,786.62,1151.11,842.901,681.245,728.924,
589.366,481.396,362.533,431.428,499.591,501.699,462.956,485.116,532.401,396.035,
220.159,226.329,235.006,252.94,232.49,227.642,245.535,251.336,157.443,87.3502,
140.736,75.9624,79.5814,58.0611,40.8645,44.9362,50.4823,49.8246,46.282,32.6335,
8.98943,7.92768,20.4456,7.52052,0.374425,0.00252285,0,0,0,0,0,0,0,0,0,0,0,0,0,0,
0,0,0,0,0,0,0,0,0,0,0,0,0

> <SurfACorr_ESP>
7.26293,8.33224,4.24697,-1.14589,-4.9656,-7.60533,-7.13688,-3.02199,0.307472,
1.02176,0.279279,0.00368266

> <SurfACorr_HBP>
0.00168586,0.00146369,0.00128403,0.00149079,0.00109435,0.000135195,4.34061e-06,
2.29512e-08,0,0,0,0

> <SurfACorr_HPP>
0.000729369,0.00126337,0.00187965,0.00188753,0.00166608,0.00123992,0.000846714,
0.000567381,0.000344948,0.000133564,1.98371e-05,-4.27757e-08

$$$$
