6274
  -OEChem-12021016013D

 10 11  0     1  0  0  0  0  0999 V2000
   -2.4946   -1.1223    0.9038 O   0  0  0  0  0  0  0  0  0  0  0  0
    1.6797    0.1409    1.1624 N   0  0  0  0  0  0  0  0  0  0  0  0
   -2.7494    1.3693   -0.2178 N   0  0  0  0  0  0  0  0  0  0  0  0
    2.8201   -0.3365   -0.6825 N   0  0  0  0  0  0  0  0  0  0  0  0
   -0.3579    1.3004    0.3217 C   0  0  0  0  0  0  0  0  0  0  0  0
   -1.5062    0.6397   -0.4567 C   0  0  1  0  0  0  0  0  0  0  0  0
    0.9671    0.6020    0.1195 C   0  0  0  0  0  0  0  0  0  0  0  0
   -1.7498   -0.7917   -0.0102 C   0  0  0  0  0  0  0  0  0  0  0  0
    1.6556    0.3150   -1.0031 C   0  0  0  0  0  0  0  0  0  0  0  0
    2.8043   -0.4249    0.6290 C   0  0  0  0  0  0  0  0  0  0  0  0
  1  8  2  0  0  0  0
  2  7  1  0  0  0  0
  2 10  1  0  0  0  0
  3  6  1  0  0  0  0
  3  8  1  0  0  0  0
  4  9  1  0  0  0  0
  4 10  2  0  0  0  0
  5  6  1  0  0  0  0
  5  7  1  0  0  0  0
  6  8  1  0  0  0  0
  7  9  2  0  0  0  0
M  END
> <PUBCHEM_COMPOUND_CID>
6274

> <PUBCHEM_CONFORMER_RMSD>
0.6

> <PUBCHEM_CONFORMER_DIVERSEORDER>
1
12
16
9
4
20
7
8
14
15
3
6
2
13
19
18
10
5
11
17

> <PUBCHEM_MMFF94_PARTIAL_CHARGES>
17
1 -0.65
10 0.08
11 0.04
15 0.27
16 0.15
17 0.36
18 0.36
19 0.15
2 -0.57
20 0.5
3 0.03
4 -0.99
5 -0.57
6 0.18
7 0.33
8 -0.33
9 0.66

> <PUBCHEM_EFFECTIVE_ROTOR_COUNT>
3

> <PUBCHEM_PHARMACOPHORE_FEATURES>
8
1 1 acceptor
1 2 acceptor
1 3 donor
1 4 cation
1 4 donor
3 1 2 9 anion
3 3 5 11 cation
5 3 5 8 10 11 rings

> <PUBCHEM_HEAVY_ATOM_COUNT>
11

> <PUBCHEM_ATOM_DEF_STEREO_COUNT>
1

> <PUBCHEM_ATOM_UDEF_STEREO_COUNT>
0

> <PUBCHEM_BOND_DEF_STEREO_COUNT>
0

> <PUBCHEM_BOND_UDEF_STEREO_COUNT>
0

> <PUBCHEM_ISOTOPIC_ATOM_COUNT>
0

> <PUBCHEM_COMPONENT_COUNT>
1

> <PUBCHEM_CACTVS_TAUTO_COUNT>
2

> <PUBCHEM_CONFORMER_ID>
0000188200000001

> <PUBCHEM_MMFF94_ENERGY>
7.9539

> <PUBCHEM_FEATURE_SELFOVERLAP>
40.653

> <PUBCHEM_SHAPE_FINGERPRINT>
12897270 3 14117525285476373811
12932764 1 18261392204856353928
15310529 11 17917141710974146908
16945 1 17987523765303135301
20201158 50 17603588572965300814
20645464 45 17822017501236123522
23235685 24 18338239395999017317
23552423 10 17988359252416808885
369184 2 14851605479397282079

> <PUBCHEM_SHAPE_MULTIPOLES>
199.69
4.3
1.38
1
-0.09
0.7
-0.17
0.2
1.05
-0.13
-0.5
0.37
2.85
0.99

> <PUBCHEM_SHAPE_SELFOVERLAP>
409.56

> <PUBCHEM_SHAPE_VOLUME>
117.2

> <PUBCHEM_COORDINATE_TYPE>
2
5
255

> <Vcharge2003_FromPaper>
-0.552 -0.328 -0.657 -0.516 -0.067 0.172 0.037 0.625 0.157 0.268 0.308 0.33 0.041 0.041 0.023 0.075 0.063

$$$$

