931
  -OEChem-07150817312D

 18 19  0     0  0  0  0  0  0999 V2000
    3.7321   -0.5000    0.0000 C   0  0  0  0  0  0  0  0  0  0  0  0
    3.7321    0.5000    0.0000 C   0  0  0  0  0  0  0  0  0  0  0  0
    4.6260   -1.0347    0.0000 C   0  0  0  0  0  0  0  0  0  0  0  0
    4.6260    1.0347    0.0000 C   0  0  0  0  0  0  0  0  0  0  0  0
    2.8660   -1.0000    0.0000 C   0  0  0  0  0  0  0  0  0  0  0  0
    2.8660    1.0000    0.0000 C   0  0  0  0  0  0  0  0  0  0  0  0
    5.5321   -0.5208    0.0000 C   0  0  0  0  0  0  0  0  0  0  0  0
    5.5321    0.5208    0.0000 C   0  0  0  0  0  0  0  0  0  0  0  0
    2.0000   -0.5000    0.0000 C   0  0  0  0  0  0  0  0  0  0  0  0
    2.0000    0.5000    0.0000 C   0  0  0  0  0  0  0  0  0  0  0  0
    4.6188   -1.6546    0.0000 H   0  0  0  0  0  0  0  0  0  0  0  0
    4.6188    1.6546    0.0000 H   0  0  0  0  0  0  0  0  0  0  0  0
    2.8660   -1.6200    0.0000 H   0  0  0  0  0  0  0  0  0  0  0  0
    2.8660    1.6200    0.0000 H   0  0  0  0  0  0  0  0  0  0  0  0
    6.0678   -0.8329    0.0000 H   0  0  0  0  0  0  0  0  0  0  0  0
    6.0678    0.8329    0.0000 H   0  0  0  0  0  0  0  0  0  0  0  0
    1.4631   -0.8100    0.0000 H   0  0  0  0  0  0  0  0  0  0  0  0
    1.4631    0.8100    0.0000 H   0  0  0  0  0  0  0  0  0  0  0  0
  1  2  4  0  0  0  0
  1  3  4  0  0  0  0
  1  5  4  0  0  0  0
  2  4  4  0  0  0  0
  2  6  4  0  0  0  0
  3  7  4  0  0  0  0
  3 11  1  0  0  0  0
  4  8  4  0  0  0  0
  4 12  1  0  0  0  0
  5  9  4  0  0  0  0
  5 13  1  0  0  0  0
  6 10  4  0  0  0  0
  6 14  1  0  0  0  0
  7  8  4  0  0  0  0
  7 15  1  0  0  0  0
  8 16  1  0  0  0  0
  9 10  4  0  0  0  0
  9 17  1  0  0  0  0
 10 18  1  0  0  0  0
M  END
> <PUBCHEM_COMPOUND_ID_TYPE>
1

> <PUBCHEM_COMPOUND_CID>
931

> <PUBCHEM_COMPOUND_CANONICALIZED>
1

> <PUBCHEM_CACTVS_COMPLEXITY>
80.6

> <PUBCHEM_CACTVS_HBOND_ACCEPTOR>
0

> <PUBCHEM_CACTVS_HBOND_DONOR>
0

> <PUBCHEM_CACTVS_ROTATABLE_BOND>
0

> <PUBCHEM_CACTVS_SUBSKEYS>
AAADccBwAAAAAAAAAAAAAAAAAAAAAAAAAAAwYAAAAAAAAADBUAAAGAAAAAAADACAGAAwAMAAAACAAiBCAAACAAAgAAAIiAAAAIgIICKAERCAIAAggAAIiAcAgIAOgAAAAAAQAAAAAAAAACAAAAAAAAAAAA==

> <PUBCHEM_IUPAC_OPENEYE_NAME>
naphthalene

> <PUBCHEM_IUPAC_CAS_NAME>
naphthalene

> <PUBCHEM_IUPAC_NAME>
naphthalene

> <PUBCHEM_IUPAC_SYSTEMATIC_NAME>
naphthalene

> <PUBCHEM_IUPAC_TRADITIONAL_NAME>
naphthalene

> <PUBCHEM_NIST_INCHI>
InChI=1/C10H8/c1-2-6-10-8-4-3-7-9(10)5-1/h1-8H

> <PUBCHEM_CACTVS_XLOGP>
3.3

> <PUBCHEM_EXACT_MASS>
128.0626

> <PUBCHEM_MOLECULAR_FORMULA>
C10H8

> <PUBCHEM_MOLECULAR_WEIGHT>
128.17052

> <PUBCHEM_OPENEYE_CAN_SMILES>
C1=CC=C2C=CC=CC2=C1

> <PUBCHEM_OPENEYE_ISO_SMILES>
C1=CC=C2C=CC=CC2=C1

> <PUBCHEM_CACTVS_TPSA>
0

> <PUBCHEM_MONOISOTOPIC_WEIGHT>
128.0626

> <PUBCHEM_TOTAL_CHARGE>
0

> <PUBCHEM_HEAVY_ATOM_COUNT>
10

> <PUBCHEM_ATOM_DEF_STEREO_COUNT>
0

> <PUBCHEM_ATOM_UDEF_STEREO_COUNT>
0

> <PUBCHEM_BOND_DEF_STEREO_COUNT>
0

> <PUBCHEM_BOND_UDEF_STEREO_COUNT>
0

> <PUBCHEM_ISOTOPIC_ATOM_COUNT>
0

> <PUBCHEM_COMPONENT_COUNT>
1

> <PUBCHEM_CACTVS_TAUTO_COUNT>
1

> <PUBCHEM_SUBSTANCE_ID>
4087

> <PUBCHEM_SUBSTANCE_VERSION>
5

> <PUBCHEM_EXT_DATASOURCE_NAME>
KEGG

> <PUBCHEM_EXT_DATASOURCE_REGID>
C00829

> <PUBCHEM_SUBSTANCE_COMMENT>
CAS: 91-20-3
ChEBI: 16482
CCD: NPY
3DMET: B00183
Is a reactant or product of enzyme EC 1.14.12.12
Is a reactant or product of enzyme EC 1.14.14.1

> <PUBCHEM_SUBSTANCE_SYNONYM>
91-20-3
C00829
Naphthalene

> <PUBCHEM_GENERIC_REGISTRY_NAME>
91-20-3

> <PUBCHEM_XREF_EXT_ID>
C00829

> <PUBCHEM_EXT_DATASOURCE_URL>
http://www.genome.jp/kegg/kegg2.html

> <PUBCHEM_EXT_SUBSTANCE_URL>
http://www.genome.jp/dbget-bin/www_bget?cpd+C00829

> <PUBCHEM_CID_ASSOCIATIONS>
931  1

> <PUBCHEM_BONDANNOTATIONS>
1  2  8
1  3  8
1  5  8
2  4  8
2  6  8
3  7  8
4  8  8
5  9  8
6  10  8
7  8  8
9  10  8

$$$$