136032
  -OEChem-12191115473D

 18 20  0     0  0  0  0  0  0999 V2000
    0.1657   -0.0259    0.0000 N   0  0  0  0  0  0  0  0  0  0  0  0
    1.5120   -0.0663   -0.0001 C   0  0  0  0  0  0  0  0  0  0  0  0
   -0.4422   -1.2328   -0.0001 C   0  0  0  0  0  0  0  0  0  0  0  0
   -0.3667    1.2320   -0.0001 C   0  0  0  0  0  0  0  0  0  0  0  0
    1.8524   -1.3951    0.0000 C   0  0  0  0  0  0  0  0  0  0  0  0
    1.9092    1.3000    0.0000 C   0  0  0  0  0  0  0  0  0  0  0  0
    0.6032   -2.1423    0.0001 C   0  0  0  0  0  0  0  0  0  0  0  0
    0.7985    2.0916    0.0001 C   0  0  0  0  0  0  0  0  0  0  0  0
   -1.8662   -1.1583    0.0001 C   0  0  0  0  0  0  0  0  0  0  0  0
   -1.7018    1.3331    0.0000 C   0  0  0  0  0  0  0  0  0  0  0  0
   -2.4639    0.0639   -0.0001 C   0  0  0  0  0  0  0  0  0  0  0  0
    2.8497   -1.8116    0.0001 H   0  0  0  0  0  0  0  0  0  0  0  0
    2.9327    1.6442    0.0001 H   0  0  0  0  0  0  0  0  0  0  0  0
    0.5086   -3.2195    0.0002 H   0  0  0  0  0  0  0  0  0  0  0  0
    0.7798    3.1690    0.0002 H   0  0  0  0  0  0  0  0  0  0  0  0
   -2.4552   -2.0685    0.0002 H   0  0  0  0  0  0  0  0  0  0  0  0
   -2.2317    2.2765    0.0002 H   0  0  0  0  0  0  0  0  0  0  0  0
   -3.5462    0.1451    0.0000 H   0  0  0  0  0  0  0  0  0  0  0  0
  1  2  1  0  0  0  0
  1  3  1  0  0  0  0
  1  4  1  0  0  0  0
  2  5  2  0  0  0  0
  2  6  1  0  0  0  0
  3  7  2  0  0  0  0
  3  9  1  0  0  0  0
  4  8  1  0  0  0  0
  4 10  2  0  0  0  0
  5  7  1  0  0  0  0
  5 12  1  0  0  0  0
  6  8  2  0  0  0  0
  6 13  1  0  0  0  0
  7 14  1  0  0  0  0
  8 15  1  0  0  0  0
  9 11  2  0  0  0  0
  9 16  1  0  0  0  0
 10 11  1  0  0  0  0
 10 17  1  0  0  0  0
 11 18  1  0  0  0  0
M  END
> <PUBCHEM_COMPOUND_CID>
136032

> <PUBCHEM_CONFORMER_RMSD>
0.4

> <PUBCHEM_CONFORMER_DIVERSEORDER>
1

> <PUBCHEM_MMFF94_PARTIAL_CHARGES>
18
1 0.33
10 -0.15
11 -0.15
12 0.15
13 0.15
14 0.15
15 0.15
16 0.15
17 0.15
18 0.15
2 -0.2
3 -0.2
4 -0.03
5 -0.15
6 -0.11
7 -0.15
8 -0.15
9 -0.11

> <PUBCHEM_EFFECTIVE_ROTOR_COUNT>
0

> <PUBCHEM_PHARMACOPHORE_FEATURES>
4
1 1 cation
5 1 2 3 5 7 rings
5 1 2 4 6 8 rings
6 1 3 4 9 10 11 rings

> <PUBCHEM_HEAVY_ATOM_COUNT>
11

> <PUBCHEM_ATOM_DEF_STEREO_COUNT>
0

> <PUBCHEM_ATOM_UDEF_STEREO_COUNT>
0

> <PUBCHEM_BOND_DEF_STEREO_COUNT>
0

> <PUBCHEM_BOND_UDEF_STEREO_COUNT>
0

> <PUBCHEM_ISOTOPIC_ATOM_COUNT>
0

> <PUBCHEM_COMPONENT_COUNT>
1

> <PUBCHEM_CACTVS_TAUTO_COUNT>
1

> <PUBCHEM_CONFORMER_ID>
0002136000000001

> <PUBCHEM_MMFF94_ENERGY>
50.8676

> <PUBCHEM_FEATURE_SELFOVERLAP>
20.834

> <PUBCHEM_SHAPE_FINGERPRINT>
12423570 1 9331169634369142442
12524768 44 17902514027453630279
16945 1 18338516343963841477
18185500 45 18194682806963740595
193761 8 18410574011084804709
21040471 1 17978229361637954276
2334 1 18410855447248541156
23552423 10 18342172280203069359
23559900 14 17758111880662198822
241688 4 17906452477961613489
2748010 2 18410856572545803604
5084963 1 17970340421437566027
528886 8 18265900142231933889
66348 1 18410854377849150749

> <PUBCHEM_SHAPE_MULTIPOLES>
221.39
2.76
2.35
0.61
0.23
-0.01
0
0
-0.13
0
0
0
2.06
-0.14

> <PUBCHEM_SHAPE_SELFOVERLAP>
512.562

> <PUBCHEM_SHAPE_VOLUME>
115.9

> <PUBCHEM_COORDINATE_TYPE>
2
5
255

$$$$

