automatically builded mdl file by CMolecule::WriteInMDLFile
  DSViewer          3D                             0

113119  0  0  0  0  0  0  0  0999 V2000
   -2.3110   -0.4133    2.8587 C   0  0  0  1  0  0  0  0  0  0  0  0
   -3.3166    0.1637    3.2386 O   0  0  0  1  0  0  0  0  0  0  0  0
   -1.3468   -0.9775    3.8315 C   0  0  0  1  0  0  0  0  0  0  0  0
   -0.5149   -2.0115    3.4454 C   0  0  0  1  0  0  0  0  0  0  0  0
    0.3946   -2.5429    4.3465 C   0  0  0  1  0  0  0  0  0  0  0  0
    0.4657   -2.0422    5.6328 C   0  0  0  1  0  0  0  0  0  0  0  0
   -0.3686   -1.0052    6.0202 C   0  0  0  1  0  0  0  0  0  0  0  0
   -1.2753   -0.4755    5.1216 C   0  0  0  1  0  0  0  0  0  0  0  0
   -2.0154   -0.5733    1.5656 N   0  0  0  1  0  0  0  0  0  0  0  0
   -2.9201   -0.1575    0.5042 C   0  0  0  1  0  0  0  0  0  0  0  0
   -4.0348   -1.1645    0.3466 C   0  0  0  1  0  0  0  0  0  0  0  0
   -4.7704   -1.5601    1.4478 C   0  0  0  1  0  0  0  0  0  0  0  0
   -5.7969   -2.4802    1.3017 C   0  0  0  1  0  0  0  0  0  0  0  0
   -6.0811   -3.0060    0.0554 C   0  0  0  1  0  0  0  0  0  0  0  0
   -5.3435   -2.6093   -1.0491 C   0  0  0  1  0  0  0  0  0  0  0  0
   -4.3201   -1.6919   -0.9032 C   0  0  0  1  0  0  0  0  0  0  0  0
   -2.1666    0.0224   -0.8173 C   0  0  0  1  0  0  0  0  0  0  0  0
    0.0570   -0.0312    0.0093 O   0  0  0  1  0  0  0  0  0  0  0  0
   -0.8365    0.7592   -0.5703 C   0  0  0  1  0  0  0  0  0  0  0  0
   -2.9869    0.7244   -1.7241 O   0  0  0  1  0  0  0  0  0  0  0  0
   -0.6756    1.9368   -0.8107 O   0  0  0  1  0  0  0  0  0  0  0  0
    1.4327    0.0895   -0.4312 C   0  0  0  1  0  0  0  0  0  0  0  0
    1.8570    1.5377   -0.3216 C   0  0  0  1  0  0  0  0  0  0  0  0
    2.2995   -0.8138    0.4169 C   0  0  0  1  0  0  0  0  0  0  0  0
    2.7729   -0.2272    1.7608 C   0  0  0  1  0  0  0  0  0  0  0  0
    2.0108    1.0859    2.1078 C   0  0  0  1  0  0  0  0  0  0  0  0
    2.1978    1.9873    0.8798 C   0  0  0  1  0  0  0  0  0  0  0  0
    1.8914    2.4331   -1.5274 C   0  0  0  1  0  0  0  0  0  0  0  0
    2.6105    1.7436    3.3557 C   0  0  0  1  0  0  0  0  0  0  0  0
    0.5175    0.7983    2.3459 C   0  0  0  1  0  0  0  0  0  0  0  0
    2.9002    3.3201    1.0281 C   0  0  0  1  0  0  0  0  0  0  0  0
    4.2329    3.1890    1.7493 C   0  0  0  1  0  0  0  0  0  0  0  0
    4.5385    2.3812    0.4640 C   0  0  0  1  0  0  0  0  0  0  0  0
    4.9534    0.8857    0.6862 C   0  0  0  1  0  0  0  0  0  0  0  0
    4.3193   -0.0337    1.7644 C   0  0  0  1  0  0  0  0  0  0  0  0
    5.8202    3.0534   -0.1184 C   0  0  0  1  0  0  0  0  0  0  0  0
    7.1448    2.5458   -0.6735 C   0  0  0  1  0  0  0  0  0  0  0  0
    7.2504    1.0343   -0.6598 C   0  0  0  1  0  0  0  0  0  0  0  0
    6.1397    0.1818   -0.0094 C   0  0  0  1  0  0  0  0  0  0  0  0
    2.4344    4.5309    0.4384 O   0  0  0  1  0  0  0  0  0  0  0  0
    2.9778    5.7056    0.9027 C   0  0  0  1  0  0  0  0  0  0  0  0
    2.2422    6.8960    0.3436 C   0  0  0  1  0  0  0  0  0  0  0  0
    3.9110    5.7568    1.6510 O   0  0  0  1  0  0  0  0  0  0  0  0
    4.4053    3.7874    2.7985 O   0  0  0  1  0  0  0  0  0  0  0  0
    2.4604   -1.1853    2.7838 O   0  0  0  1  0  0  0  0  0  0  0  0
    4.9095   -1.3342    1.6127 O   0  0  0  1  0  0  0  0  0  0  0  0
    4.7118   -2.2141    2.6005 C   0  0  0  1  0  0  0  0  0  0  0  0
    5.6857   -2.0369    3.7031 C   0  0  0  1  0  0  0  0  0  0  0  0
    7.0424   -2.0137    3.4199 C   0  0  0  1  0  0  0  0  0  0  0  0
    7.9593   -1.8543    4.4418 C   0  0  0  1  0  0  0  0  0  0  0  0
    5.2496   -1.8954    5.0070 C   0  0  0  1  0  0  0  0  0  0  0  0
    6.1690   -1.7356    6.0320 C   0  0  0  1  0  0  0  0  0  0  0  0
    7.5217   -1.7124    5.7494 C   0  0  0  1  0  0  0  0  0  0  0  0
    3.8423   -3.0467    2.5845 O   0  0  0  1  0  0  0  0  0  0  0  0
    8.2187    0.5227    0.3070 O   0  0  0  1  0  0  0  0  0  0  0  0
    5.6482   -0.7815   -0.9544 O   0  0  0  1  0  0  0  0  0  0  0  0
    7.2538   -0.4266    0.8275 C   0  0  0  1  0  0  0  0  0  0  0  0
    6.5566   -1.4752   -1.6481 C   0  0  0  1  0  0  0  0  0  0  0  0
    5.8892   -2.4569   -2.5763 C   0  0  0  1  0  0  0  0  0  0  0  0
    7.7387   -1.3233   -1.5342 O   0  0  0  1  0  0  0  0  0  0  0  0
    3.3741    2.3654   -0.4989 C   0  0  0  1  0  0  0  0  0  0  0  0
    4.8114    2.8714   -1.1131 O   0  0  0  1  0  0  0  0  0  0  0  0
   -0.5713   -2.3908    2.4787 H   0  0  0  1  0  0  0  0  0  0  0  0
    1.0233   -3.3182    4.0547 H   0  0  0  1  0  0  0  0  0  0  0  0
    1.1453   -2.4436    6.3101 H   0  0  0  1  0  0  0  0  0  0  0  0
   -0.3122   -0.6259    6.9869 H   0  0  0  1  0  0  0  0  0  0  0  0
   -1.9040    0.2998    5.4135 H   0  0  0  1  0  0  0  0  0  0  0  0
   -1.1597   -0.9849    1.3235 H   0  0  0  1  0  0  0  0  0  0  0  0
   -3.3567    0.7833    0.7671 H   0  0  0  1  0  0  0  0  0  0  0  0
   -4.5538   -1.1674    2.3862 H   0  0  0  1  0  0  0  0  0  0  0  0
   -6.3530   -2.7749    2.1296 H   0  0  0  1  0  0  0  0  0  0  0  0
   -6.8486   -3.6993   -0.0536 H   0  0  0  1  0  0  0  0  0  0  0  0
   -5.5601   -3.0019   -1.9874 H   0  0  0  1  0  0  0  0  0  0  0  0
   -3.7640   -1.3973   -1.7312 H   0  0  0  1  0  0  0  0  0  0  0  0
   -1.9440   -0.9484   -1.2083 H   0  0  0  1  0  0  0  0  0  0  0  0
   -2.7491    1.6545   -1.7175 H   0  0  0  1  0  0  0  0  0  0  0  0
    1.5087   -0.2174   -1.4534 H   0  0  0  1  0  0  0  0  0  0  0  0
    1.7406   -1.7019    0.6261 H   0  0  0  1  0  0  0  0  0  0  0  0
    3.1684   -1.0650   -0.1549 H   0  0  0  1  0  0  0  0  0  0  0  0
    1.3323    3.3232   -1.3274 H   0  0  0  1  0  0  0  0  0  0  0  0
    1.4611    1.9221   -2.3632 H   0  0  0  1  0  0  0  0  0  0  0  0
    2.9055    2.6918   -1.7505 H   0  0  0  1  0  0  0  0  0  0  0  0
    2.3430    2.7794    3.3772 H   0  0  0  1  0  0  0  0  0  0  0  0
    3.6762    1.6512    3.3300 H   0  0  0  1  0  0  0  0  0  0  0  0
    2.2311    1.2593    4.2312 H   0  0  0  1  0  0  0  0  0  0  0  0
    0.3044    0.8599    3.3927 H   0  0  0  1  0  0  0  0  0  0  0  0
    0.2827   -0.1836    1.9916 H   0  0  0  1  0  0  0  0  0  0  0  0
   -0.0726    1.5188    1.8191 H   0  0  0  1  0  0  0  0  0  0  0  0
    2.3869    3.5268    1.9439 H   0  0  0  1  0  0  0  0  0  0  0  0
    4.2050    1.0361   -0.0636 H   0  0  0  1  0  0  0  0  0  0  0  0
    4.5848    0.3698    2.7192 H   0  0  0  1  0  0  0  0  0  0  0  0
    5.9207    4.0956    0.1019 H   0  0  0  1  0  0  0  0  0  0  0  0
    7.2442    2.8856   -1.6832 H   0  0  0  1  0  0  0  0  0  0  0  0
    7.9397    2.9487   -0.0812 H   0  0  0  1  0  0  0  0  0  0  0  0
    7.4600    0.6689   -1.6434 H   0  0  0  1  0  0  0  0  0  0  0  0
    2.2196    6.8326   -0.7243 H   0  0  0  1  0  0  0  0  0  0  0  0
    2.7436    7.7947    0.6368 H   0  0  0  1  0  0  0  0  0  0  0  0
    1.2412    6.9060    0.7213 H   0  0  0  1  0  0  0  0  0  0  0  0
    1.7008   -1.7064    2.5135 H   0  0  0  1  0  0  0  0  0  0  0  0
    7.3705   -2.1161    2.4383 H   0  0  0  1  0  0  0  0  0  0  0  0
    8.9773   -1.8409    4.2297 H   0  0  0  1  0  0  0  0  0  0  0  0
    4.2315   -1.9088    5.2192 H   0  0  0  1  0  0  0  0  0  0  0  0
    5.8410   -1.6331    7.0136 H   0  0  0  1  0  0  0  0  0  0  0  0
    8.2113   -1.5884    6.5179 H   0  0  0  1  0  0  0  0  0  0  0  0
    7.4731   -1.4438    0.5783 H   0  0  0  1  0  0  0  0  0  0  0  0
    7.0942   -0.3437    1.8823 H   0  0  0  1  0  0  0  0  0  0  0  0
    5.1996   -1.9382   -3.2090 H   0  0  0  1  0  0  0  0  0  0  0  0
    5.3631   -3.1900   -2.0012 H   0  0  0  1  0  0  0  0  0  0  0  0
    6.6309   -2.9396   -3.1778 H   0  0  0  1  0  0  0  0  0  0  0  0
    2.6572    1.6380   -0.1797 H   0  0  0  1  0  0  0  0  0  0  0  0
    3.7242    2.1146   -1.4784 H   0  0  0  1  0  0  0  0  0  0  0  0
    2.9158    3.3321   -0.5201 H   0  0  0  1  0  0  0  0  0  0  0  0
    4.9007    3.5486   -1.7877 H   0  0  0  1  0  0  0  0  0  0  0  0
  1  2  2  0  0  0  0
  1  3  1  0  0  0  0
  1  9  1  0  0  0  0
  3  4  1  0  0  0  0
  3  8  2  0  0  0  0
  4  5  2  0  0  0  0
  4 63  1  0  0  0  0
  5  6  1  0  0  0  0
  5 64  1  0  0  0  0
  6  7  2  0  0  0  0
  6 65  1  0  0  0  0
  7  8  1  0  0  0  0
  7 66  1  0  0  0  0
  8 67  1  0  0  0  0
  9 10  1  0  0  0  0
  9 68  1  0  0  0  0
 10 11  1  0  0  0  0
 10 17  1  0  0  0  0
 10 69  1  0  0  0  0
 11 12  1  0  0  0  0
 11 16  2  0  0  0  0
 12 13  2  0  0  0  0
 12 70  1  0  0  0  0
 13 14  1  0  0  0  0
 13 71  1  0  0  0  0
 14 15  2  0  0  0  0
 14 72  1  0  0  0  0
 15 16  1  0  0  0  0
 15 73  1  0  0  0  0
 16 74  1  0  0  0  0
 17 19  1  0  0  0  0
 17 20  1  0  0  0  0
 17 75  1  0  0  0  0
 18 19  1  0  0  0  0
 18 22  1  0  0  0  0
 19 21  2  0  0  0  0
 20 76  1  0  0  0  0
 22 23  1  0  0  0  0
 22 24  1  0  0  0  0
 22 77  1  0  0  0  0
 23 27  2  0  0  0  0
 23 28  1  0  0  0  0
 24 25  1  0  0  0  0
 24 78  1  0  0  0  0
 24 79  1  0  0  0  0
 25 26  1  0  0  0  0
 25 35  1  0  0  0  0
 25 45  1  0  0  0  0
 26 27  1  0  0  0  0
 26 29  1  0  0  0  0
 26 30  1  0  0  0  0
 27 31  1  0  0  0  0
 28 80  1  0  0  0  0
 28 81  1  0  0  0  0
 28 82  1  0  0  0  0
 29 83  1  0  0  0  0
 29 84  1  0  0  0  0
 29 85  1  0  0  0  0
 30 86  1  0  0  0  0
 30 87  1  0  0  0  0
 30 88  1  0  0  0  0
 31 32  1  0  0  0  0
 31 40  1  0  0  0  0
 31 89  1  0  0  0  0
 32 33  1  0  0  0  0
 32 44  2  0  0  0  0
 33 34  1  0  0  0  0
 33 36  1  0  0  0  0
 33 61  1  0  0  0  0
 34 35  1  0  0  0  0
 34 39  1  0  0  0  0
 34 90  1  0  0  0  0
 35 46  1  0  0  0  0
 35 91  1  0  0  0  0
 36 37  1  0  0  0  0
 36 62  1  0  0  0  0
 36 92  1  0  0  0  0
 37 38  1  0  0  0  0
 37 93  1  0  0  0  0
 37 94  1  0  0  0  0
 38 39  1  0  0  0  0
 38 55  1  0  0  0  0
 38 95  1  0  0  0  0
 39 56  1  0  0  0  0
 39 57  1  0  0  0  0
 40 41  1  0  0  0  0
 41 42  1  0  0  0  0
 41 43  2  0  0  0  0
 42 96  1  0  0  0  0
 42 97  1  0  0  0  0
 42 98  1  0  0  0  0
 45 99  1  0  0  0  0
 46 47  1  0  0  0  0
 47 48  1  0  0  0  0
 47 54  2  0  0  0  0
 48 49  1  0  0  0  0
 48 51  2  0  0  0  0
 49 50  2  0  0  0  0
 49100  1  0  0  0  0
 50 53  1  0  0  0  0
 50101  1  0  0  0  0
 51 52  1  0  0  0  0
 51102  1  0  0  0  0
 52 53  2  0  0  0  0
 52103  1  0  0  0  0
 53104  1  0  0  0  0
 55 57  1  0  0  0  0
 56 58  1  0  0  0  0
 57105  1  0  0  0  0
 57106  1  0  0  0  0
 58 59  1  0  0  0  0
 58 60  2  0  0  0  0
 59107  1  0  0  0  0
 59108  1  0  0  0  0
 59109  1  0  0  0  0
 61110  1  0  0  0  0
 61111  1  0  0  0  0
 61112  1  0  0  0  0
 62113  1  0  0  0  0
M  END
> <BCLConfClusterSize>
1

> <ConfClashScore>
0.106623 

> <ConfOneFourInteractionScore>
-0.972877 

> <ConfScore>
11.347 

> <ConfScorePBest>
1 

> <Field Strength [MHz]>
0:0 

> <Solvent>
0: 

> <Spectrum 13C 0>
167;0.0;0|133.6;0.0;2|127;0.0;3|129;0.0;4|131.9;0.0;5|129;0.0;6|127;0.0;7|55;0.0;9|138;0.0;10|127;0.0;11|128.7;0.0;12|128.3;0.0;13|128.7;0.0;14|127;0.0;15|73.2;0.0;16|172.7;0.0;18|72.3;0.0;21|142;0.0;
22|35.7;0.0;23|79;0.0;24|43.2;0.0;25|133.2;0.0;26|14.8;0.0;27|26.9;0.0;28|21.8;0.0;29|75.5;0.0;30|203.6;0.0;31|58.6;0.0;32|45.6;0.0;33|74.9;0.0;34|72.2;0.0;35|35.6;0.0;36|84.4;0.0;37|81.1;0.0;38|171.2;0.0;40|20.8;0.0;41|167;0.0;46|129.1;0.0;47|130.2;0.0;48|128.7;0.0;49|130.2;0.0;50|128.7;0.0;51|133.7;0.0;52|76.5;0.0;56|170.4;0.0;57|22.6;0.0;58|9.5;0.0;60|

> <Temperature [K]>
0:0 

$$$$
